660

Pd 13.314300 0.092300 -0.100300
N 13.272300 1.442400 1.461100
N 13.264800 -1.411800 1.313100
N 13.224300 -1.257800 -1.659800
N 13.231500 1.596600 -1.511900
Pd -13.838500 0.139400 0.272500
N -13.748400 1.489400 1.831900
N -13.755500 -1.365100 1.683900
N -13.796300 -1.210900 -1.288800
N -13.788700 1.643500 -1.140800
Pd -0.224600 13.673400 0.779100
N 1.225200 13.528900 2.241800
N 1.183000 13.681200 -0.731200
N -1.674700 13.685800 -0.690500
N -1.632800 13.533700 2.282400
Pd -0.292800 -13.446200 -0.607300
N 1.157400 -13.458400 0.862100
N 1.115300 -13.306500 -2.110700
N -1.742900 -13.301600 -2.069800
N -1.700600 -13.453800 0.902900
Pd 6.674600 6.391900 9.928200
N 6.986800 4.544400 10.795200
N 8.393400 6.071000 8.830500
N 6.294800 8.178100 8.965100
N 4.888200 6.651600 10.930100
Pd 6.640500 -7.166800 9.232800
N 8.360800 -6.745000 8.172100
N 6.962400 -5.418900 10.283300
N 4.852700 -7.517500 10.204100
N 6.251300 -8.843800 8.093300
Pd -6.901400 6.416200 10.112300
N -8.650700 6.102600 9.061500
N -6.540200 8.201200 9.139800
N -5.087600 6.668500 11.065600
N -7.197800 4.569500 10.986800
Pd -6.935400 -7.143800 9.417500
N -8.682600 -6.717200 8.403700
N -7.223700 -5.394400 10.475300
N -5.123200 -7.499800 10.340200
N -6.582000 -8.822600 8.268900
Pd 6.413500 7.372500 -9.249400
N 8.160700 6.946000 -8.235400
N 6.701900 5.623100 -10.307200
N 4.601200 7.728200 -10.172000
N 6.060200 9.051200 -8.100700
Pd 6.379700 -6.186900 -9.941200
N 8.128800 -5.872800 -8.890400
N 6.019000 -7.972100 -8.968700
N 4.565600 -6.439500 -10.894100
N 6.675700 -4.340500 -10.816200
Pd -7.161800 7.395700 -9.060000
N -8.882100 6.975000 -7.998900
N -7.484700 5.647500 -10.109800
N -5.374400 7.745600 -10.032100
N -6.771500 9.072800 -7.921000
Pd -7.196900 -6.163800 -9.752400
N -8.915700 -5.843200 -8.654600
N -6.816600 -7.950100 -8.789500
N -5.410500 -6.423200 -10.754500
N -7.509500 -4.316300 -10.619100
C 8.276600 5.376500 7.689500
C 9.355200 4.993300 6.923500
C 10.661100 5.332700 7.321100
C 11.813900 4.928400 6.547900
C 13.161100 5.196400 6.730600
C 13.845700 4.546900 5.696500
C 12.889300 3.908200 4.923500
C 13.029900 3.085400 3.743000
C 11.907300 2.572100 3.068500
C 12.071900 1.775800 1.956800
C 14.354800 1.930500 2.082200
C 14.280800 2.742200 3.200600
O 11.653300 4.146700 5.444000
C 10.766100 6.076500 8.509600
C 9.628400 6.414400 9.221400
H 7.263400 5.119800 7.379600
H 9.200100 4.433500 6.014900
H 13.615200 5.786400 7.501100
H 14.907000 4.561000 5.549800
H 10.916000 2.805600 3.423000
H 11.202900 1.382200 1.429000
H 15.322500 1.661100 1.667500
H 15.194800 3.099000 3.647000
H 11.727400 6.388400 8.884700
H 9.711400 6.984200 10.143000
C 8.073700 6.138500 -7.168500
C 9.172000 5.682100 -6.473900
C 10.467000 6.063600 -6.868800
C 11.639700 5.585400 -6.171400
C 12.981700 5.874600 -6.360500
C 13.693200 5.124000 -5.416900
C 12.757400 4.406300 -4.689300
C 12.929000 3.466400 -3.604200
C 14.193800 3.071800 -3.133800
C 14.297300 2.148800 -2.107700
C 12.018500 1.977000 -1.938200
C 11.824700 2.883600 -2.956700
O 11.508200 4.693700 -5.150000
C 10.540900 6.925100 -7.977500
C 9.385000 7.330800 -8.621300
H 7.069000 5.848900 -6.860100
H 9.040700 5.032200 -5.623400
H 13.415400 6.542200 -7.077500
H 14.757900 5.126000 -5.297300
H 15.095800 3.474900 -3.565100
H 15.275600 1.840000 -1.749200
H 11.163700 1.529000 -1.430900
H 10.824300 3.150400 -3.258500
H 11.492100 7.276100 -8.343700
H 9.443900 7.991800 -9.481900
C 8.247500 -5.937000 7.108100
C 9.328000 -5.483700 6.384200
C 10.632100 -5.869200 6.743900
C 11.787000 -5.394500 6.015200
C 13.132700 -5.687800 6.168100
C 13.820800 -4.939500 5.205600
C 12.867900 -4.219100 4.503200
C 13.013100 -3.280000 3.413600
C 14.266000 -2.889800 2.908700
C 14.344500 -1.967400 1.879900
C 12.062600 -1.787900 1.772500
C 11.893500 -2.693600 2.796200
O 11.630700 -4.502600 4.997500
C 10.733300 -6.731100 7.850100
C 9.593900 -7.133500 8.524800
H 7.235700 -5.644300 6.826900
H 9.175800 -4.833200 5.537700
H 13.583500 -6.356600 6.873400
H 14.881900 -4.944700 5.057300
H 15.177900 -3.295800 3.315400
H 15.313800 -1.662100 1.494700
H 11.195800 -1.337100 1.288600
H 10.900900 -2.956900 3.125300
H 11.692900 -7.085100 8.190600
H 9.674000 -7.794900 9.383400
C 8.045600 -5.177500 -7.746900
C 9.146000 -4.797900 -7.010700
C 10.439400 -5.142100 -7.443500
C 11.614300 -4.741600 -6.702300
C 12.955000 -5.014800 -6.921500
C 13.670000 -4.367100 -5.906900
C 12.737400 -3.724300 -5.108600
C 12.913300 -2.901300 -3.933000
C 14.179900 -2.562300 -3.425500
C 14.287600 -1.750200 -2.310100
C 12.009600 -1.587100 -2.122100
C 11.811600 -2.383400 -3.228300
O 11.486800 -3.958600 -5.595000
C 10.509400 -5.886800 -8.634000
C 9.351500 -6.220800 -9.314500
H 7.042100 -4.917000 -7.409700
H 9.017700 -4.237300 -6.098500
H 13.385800 -5.607100 -7.703500
H 14.734800 -4.385100 -5.789300
H 15.080000 -2.922700 -3.896600
H 15.267300 -1.484000 -1.922400
H 11.156900 -1.190000 -1.571000
H 10.810100 -2.613400 -3.555300
H 11.458900 -6.202300 -9.035000
H 9.407400 -6.791300 -10.237800
C -8.568000 5.407400 7.918000
C -9.668700 5.028300 7.182000
C -10.961800 5.372900 7.615200
C -12.137100 4.972800 6.874200
C -13.477700 5.246200 7.093700
C -14.193000 4.598800 6.079200
C -13.260700 3.955900 5.280700
C -13.436900 3.132900 4.105100
C -12.335400 2.614900 3.400300
C -12.533600 1.818600 2.294100
C -14.811500 1.981900 2.482300
C -14.703600 2.794000 3.597800
O -12.010000 4.189800 5.766800
C -11.031300 6.117400 8.805800
C -9.873100 6.451000 9.486000
H -7.564700 5.146700 7.580500
H -9.540800 4.467700 6.269700
H -13.908100 5.838500 7.875900
H -15.257900 4.617000 5.961800
H -11.333800 2.844900 3.727100
H -11.681000 1.421400 1.742800
H -15.791300 1.715900 2.094800
H -15.603600 3.154500 4.069000
H -11.980700 6.433200 9.207000
H -9.928600 7.021300 10.409400
C -8.769400 6.166900 -6.935000
C -9.850200 5.714300 -6.211000
C -11.154000 6.100700 -6.570700
C -12.309200 5.626600 -5.841900
C -13.654700 5.920700 -5.994700
C -14.343200 5.172600 -5.032300
C -13.390700 4.451500 -4.330200
C -13.536300 3.512200 -3.240800
C -14.789300 3.122300 -2.736000
C -14.868300 2.199700 -1.707500
C -12.586300 2.019300 -1.600000
C -12.416900 2.925200 -2.623500
O -12.153300 4.734400 -4.824500
C -11.254700 6.962700 -7.676800
C -10.115000 7.364300 -8.351500
H -7.757700 5.873500 -6.653800
H -9.698300 5.063700 -5.364500
H -14.105100 6.589900 -6.699800
H -15.404300 5.178400 -4.883900
H -15.701100 3.528800 -3.142700
H -15.837600 1.894600 -1.322400
H -11.719800 1.568100 -1.116300
H -11.424200 3.188200 -2.952500
H -12.214000 7.317300 -8.017200
H -10.194700 8.025800 -9.210100
C -8.596000 -5.909400 7.337100
C -9.694500 -5.452600 6.643000
C -10.989400 -5.834200 7.038200
C -12.162400 -5.355700 6.341400
C -13.504200 -5.645100 6.530700
C -14.216100 -4.894100 5.587800
C -13.280600 -4.176100 4.860200
C -13.452500 -3.235700 3.775500
C -12.348300 -2.652500 3.128000
C -12.542400 -1.745500 2.109900
C -14.821100 -1.917600 2.279800
C -14.717400 -2.840900 3.305500
O -12.031200 -4.463600 5.320400
C -11.063000 -6.696100 8.146600
C -9.906800 -7.102100 8.789800
H -7.591400 -5.619700 7.028400
H -9.563500 -4.802500 5.792700
H -13.937700 -6.313000 7.247600
H -15.280900 -4.896000 5.468400
H -11.347900 -2.919300 3.429600
H -11.687700 -1.297300 1.602700
H -15.799600 -1.608800 1.921600
H -15.619200 -3.244300 3.736800
H -12.014000 -7.047300 8.513000
H -9.965500 -7.763400 9.650200
C -8.799200 -5.148300 -7.513900
C -9.878000 -4.764800 -6.748300
C -11.183800 -5.104200 -7.146100
C -12.336800 -4.699500 -6.373500
C -13.684000 -4.967400 -6.556500
C -14.368900 -4.317400 -5.522900
C -13.412600 -3.678400 -4.749900
C -13.553500 -2.855000 -3.569900
C -14.804500 -2.511400 -3.028000
C -14.878700 -1.699200 -1.909900
C -12.595900 -1.544600 -1.784000
C -12.431100 -2.341400 -2.895300
O -12.176500 -3.917200 -5.269900
C -11.288500 -5.848500 -8.334300
C -10.150600 -6.186700 -9.045700
H -7.786000 -4.891500 -7.203800
H -9.723100 -4.204700 -5.839800
H -14.137900 -5.557800 -7.326700
H -15.430200 -4.331300 -5.376500
H -15.718400 -2.868300 -3.474500
H -15.846500 -1.429400 -1.495700
H -11.727000 -1.150800 -1.256300
H -11.439700 -2.575100 -3.249500
H -12.249700 -6.160500 -8.709500
H -10.233400 -6.756800 -9.967200
C 5.527000 8.136000 7.866700
C 5.102200 9.262200 7.197200
C 5.475400 10.539200 7.653800
C 5.029300 11.740100 6.983500
C 5.317900 13.072200 7.233200
C 4.606500 13.823000 6.289700
C 3.911800 12.919500 5.501600
C 3.013900 13.137200 4.389500
C 2.643200 14.421000 3.952400
C 1.759800 14.568300 2.897300
C 1.583600 12.298500 2.636200
C 2.450500 12.061300 3.679800
O 4.175700 11.652200 5.925600
C 6.295500 10.566400 8.795500
C 6.671200 9.384800 9.410200
H 5.243900 7.145300 7.510500
H 4.483600 9.166700 6.319000
H 5.960500 13.474700 7.990200
H 4.618200 14.891400 6.210000
H 3.034100 15.303800 4.431900
H 1.469200 15.561200 2.564400
H 1.150900 11.466000 2.081000
H 2.701100 11.048800 3.953700
H 6.637600 11.501000 9.209700
H 7.300100 9.407500 10.296200
C 6.424500 10.297600 -8.431800
C 6.066000 11.410200 -7.690800
C 5.277400 11.265600 -6.535800
C 4.850300 12.391400 -5.735400
C 5.131800 13.742700 -5.857200
C 4.447500 14.392400 -4.823000
C 3.775300 13.411900 -4.111000
C 2.909500 13.513600 -2.957600
C 2.552500 14.745600 -2.381800
C 1.699600 14.783000 -1.292500
C 1.528800 12.498000 -1.258900
C 2.365500 12.370000 -2.345400
O 4.026900 12.194700 -4.668300
C 4.916500 9.948100 -6.200600
C 5.322600 8.896400 -6.991800
H 7.029000 10.411300 -9.327700
H 6.396700 12.382700 -8.017500
H 5.752700 14.221500 -6.587500
H 4.461500 15.447400 -4.636200
H 2.930400 15.673300 -2.779900
H 1.419700 15.736300 -0.852100
H 1.111300 11.612500 -0.779200
H 2.607100 11.391100 -2.728000
H 4.322100 9.762800 -5.320100
H 5.049100 7.874000 -6.730000
C -5.802500 8.156300 8.021100
C -5.390600 9.281000 7.341000
C -5.745300 10.559400 7.808400
C -5.311900 11.758600 7.126900
C -5.587000 13.091900 7.385500
C -4.898400 13.840200 6.423300
C -4.230100 12.934000 5.615600
C -3.362500 13.148400 4.479100
C -2.998800 14.430900 4.032200
C -2.144700 14.575100 2.952900
C -1.984800 12.304700 2.686400
C -2.823300 12.070600 3.753800
O -4.488200 11.667600 6.045900
C -6.534100 10.589600 8.971800
C -6.898700 9.409300 9.595700
H -5.533800 7.164500 7.656800
H -4.796400 9.183200 6.446400
H -6.206500 13.496800 8.160300
H -4.907100 14.908700 6.344800
H -3.372700 15.315100 4.522700
H -1.859600 15.566900 2.612200
H -1.571100 11.470600 2.119300
H -3.070100 11.059000 4.034400
H -6.860400 11.525500 9.395600
H -7.503400 9.434300 10.498300
C -6.004200 8.915200 -6.832800
C -5.573100 9.965300 -6.052800
C -5.938900 11.284100 -6.377500
C -5.486200 12.408200 -5.588900
C -5.767300 13.760400 -5.702200
C -5.052200 14.407700 -4.687500
C -4.362900 13.425000 -3.995100
C -3.464400 13.523800 -2.866800
C -3.087300 14.754600 -2.301400
C -2.203600 14.789200 -1.236800
C -2.039100 12.503800 -1.208000
C -2.906800 12.378400 -2.270300
O -4.633600 12.208800 -4.545500
C -6.758500 11.431600 -7.510200
C -7.140900 10.320500 -8.241400
H -5.726900 7.891800 -6.579000
H -4.955200 9.777700 -5.189000
H -6.407200 14.241200 -6.414400
H -5.057900 15.462600 -4.499900
H -3.473400 15.683600 -2.688600
H -1.908200 15.741600 -0.804600
H -1.610900 11.616900 -0.740400
H -3.162400 11.400400 -2.645700
H -7.095100 12.405300 -7.827400
H -7.769500 10.436500 -9.120300
C 5.483900 -8.686600 7.005100
C 5.053600 -9.736800 6.224900
C 5.420200 -11.055500 6.549400
C 4.968400 -12.179700 5.760700
C 5.250300 -13.531800 5.873600
C 4.535600 -14.179300 4.858900
C 3.845700 -13.196900 4.166700
C 2.947200 -13.296000 3.038300
C 2.570500 -14.526900 2.472800
C 1.686800 -14.561700 1.408300
C 1.521400 -12.276300 1.379800
C 2.389100 -12.150800 2.442000
O 4.115600 -11.980600 4.717300
C 6.239900 -11.202600 7.682200
C 6.621400 -10.091400 8.413600
H 5.205900 -7.663400 6.751500
H 4.435600 -9.549600 5.361100
H 5.890600 -14.012300 6.585700
H 4.542000 -15.234100 4.671000
H 2.957100 -15.455700 2.859900
H 1.391700 -15.514200 0.976100
H 1.092800 -11.389600 0.912300
H 2.644300 -11.172600 2.817600
H 6.577100 -12.176100 7.999300
H 7.250000 -10.207100 9.292500
C 5.281500 -7.927600 -7.849800
C 4.870200 -9.052500 -7.169900
C 5.225300 -10.330700 -7.637500
C 4.792500 -11.530200 -6.956100
C 5.068100 -12.863400 -7.214800
C 4.379900 -13.611900 -6.252500
C 3.711600 -12.706000 -5.444500
C 2.844300 -12.920800 -4.307800
C 2.480900 -14.203400 -3.860900
C 1.627100 -14.347700 -2.781400
C 1.467000 -12.077300 -2.514700
C 2.305200 -11.843000 -3.582300
O 3.969100 -11.439500 -5.874700
C 6.013900 -10.360500 -8.801100
C 6.377900 -9.179900 -9.424900
H 5.012500 -6.936000 -7.485400
H 4.276200 -8.955200 -6.275100
H 5.687400 -13.268100 -7.989800
H 4.388900 -14.680500 -6.174100
H 2.854800 -15.087400 -4.351500
H 1.342200 -15.339600 -2.440800
H 1.053300 -11.243400 -1.947300
H 2.551800 -10.831400 -3.862800
H 6.340500 -11.296200 -9.225100
H 6.982400 -9.204600 -10.327700
C -5.844100 -8.667900 7.160200
C -5.437400 -9.719700 6.369400
C -5.798000 -11.037300 6.704900
C -5.370300 -12.163200 5.905100
C -5.651600 -13.514500 6.027200
C -4.966600 -14.164400 4.993500
C -4.294400 -13.184000 4.281500
C -3.428000 -13.285900 3.128500
C -3.070500 -14.518000 2.553200
C -2.217200 -14.555600 1.464300
C -2.046700 -12.270600 1.430100
C -2.883800 -12.142400 2.516300
O -4.546400 -11.966700 4.838300
C -6.587000 -11.181700 7.859600
C -6.946100 -10.069000 8.600200
H -5.570800 -7.645500 6.898200
H -4.842700 -9.534500 5.489100
H -6.272800 -13.993200 6.757300
H -4.980300 -15.219400 4.807000
H -3.448500 -15.445700 2.951400
H -1.936900 -15.508900 1.024300
H -1.629000 -11.385100 0.950500
H -3.125800 -11.163400 2.898500
H -6.917700 -12.154200 8.186500
H -7.550900 -10.182600 9.495900
C -6.048400 -7.908100 -7.691400
C -5.623000 -9.034400 -7.022300
C -5.996000 -10.311300 -7.479200
C -5.549400 -11.512200 -6.809400
C -5.837800 -12.844400 -7.059300
C -5.125800 -13.595300 -6.116400
C -4.431000 -12.691800 -5.328300
C -3.532500 -12.909700 -4.216700
C -3.161500 -14.193600 -3.780000
C -2.277600 -14.340900 -2.725300
C -2.101400 -12.071200 -2.463900
C -2.968800 -11.833900 -3.507100
O -4.695300 -11.424500 -5.751900
C -6.816600 -10.338400 -8.620600
C -7.192800 -9.156700 -9.234900
H -5.765500 -6.917400 -7.335000
H -5.004200 -8.938900 -6.144400
H -6.480700 -13.246800 -7.816100
H -5.137300 -14.663700 -6.037000
H -3.552600 -15.076300 -4.259500
H -1.986900 -15.333900 -2.392700
H -1.668500 -11.238700 -1.908800
H -3.219500 -10.821300 -3.780800
H -7.158500 -11.273000 -9.034900
H -7.822100 -9.179400 -10.120600
C 7.683100 -5.322500 11.409000
C 7.972300 -4.113900 12.018200
C 7.512200 -2.910800 11.454800
C 7.803200 -1.616900 12.030500
C 8.481500 -1.278100 13.190400
C 8.484800 0.120100 13.262300
C 7.808500 0.579300 12.143500
C 7.523800 1.926800 11.703500
C 7.989400 3.063600 12.387200
C 7.706400 4.329600 11.905100
C 6.521100 3.469800 10.142400
C 6.760800 2.175600 10.548300
O 7.392100 -0.482400 11.398600
C 6.748200 -3.036300 10.280500
C 6.502100 -4.280800 9.744200
H 8.044500 -6.251300 11.842200
H 8.557300 -4.113500 12.923600
H 8.921900 -1.937800 13.910800
H 8.928100 0.700300 14.046400
H 8.574000 2.967600 13.287800
H 8.072100 5.207400 12.431200
H 5.924700 3.664700 9.250900
H 6.361600 1.349600 9.981500
H 6.353000 -2.154600 9.801500
H 5.904800 -4.380400 8.837700
C -6.774100 -4.258000 9.923700
C -7.001700 -3.012400 10.465700
C -7.733800 -2.884000 11.659900
C -8.005000 -1.588900 12.242700
C -8.651400 -1.247600 13.420000
C -8.647700 0.150500 13.491800
C -7.999200 0.607200 12.355600
C -7.721000 1.953700 11.908400
C -6.988100 2.199900 10.733300
C -6.754000 3.493300 10.321600
C -7.888500 4.357200 12.115300
C -8.163800 3.092200 12.604500
O -7.606400 -0.456000 11.600100
C -8.182700 -4.085400 12.235900
C -7.913800 -5.295100 11.619800
H -6.201600 -4.359900 9.001500
H -6.616600 -2.132300 9.975900
H -9.075200 -1.905700 14.151600
H -9.068200 0.732400 14.287200
H -6.607400 1.372600 10.155900
H -6.180700 3.686100 9.414500
H -8.236500 5.236200 12.651200
H -8.724600 2.998200 13.520300
H -8.743400 -4.082700 13.156500
H -8.266600 -6.222600 12.062900
C -4.914900 7.316300 12.226000
C -3.668000 7.565600 12.772300
C -2.506100 7.141500 12.103700
C -1.176200 7.394700 12.611200
C -0.759600 7.998200 13.787000
C 0.640200 7.995900 13.767900
C 1.022600 7.391000 12.581300
C 2.337400 7.133400 12.037900
C 2.507200 6.444800 10.823200
C 3.771200 6.229500 10.320100
C 4.749200 7.300000 12.094700
C 3.518400 7.553500 12.674600
O -0.087100 7.023300 11.882300
C -2.711200 6.453500 10.894100
C -3.989100 6.242600 10.425600
H -5.811900 7.650000 12.740800
H -3.606000 8.092000 13.710900
H -1.369100 8.392900 14.574900
H 1.272200 8.388500 14.539000
H 1.644300 6.083200 10.286900
H 3.905100 5.690500 9.382000
H 5.661000 7.630600 12.584900
H 3.483800 8.080100 13.614500
H -1.864400 6.088900 10.334700
H -4.150300 5.704100 9.491500
C -4.953700 -8.262500 11.429000
C -3.708100 -8.571400 11.947000
C -2.544100 -8.087100 11.324600
C -1.215600 -8.396600 11.803600
C -0.802100 -9.118000 12.912100
C 0.597700 -9.120600 12.893000
C 0.983300 -8.400600 11.773500
C 2.299400 -8.095900 11.258500
C 3.478200 -8.584500 11.848700
C 4.710300 -8.279900 11.297000
C 3.738000 -7.029900 9.640600
C 2.472900 -7.288400 10.119800
O -0.124500 -7.958700 11.115600
C -2.745800 -7.279200 10.191000
C -4.022600 -7.016200 9.746400
H -5.852400 -8.642500 11.907500
H -3.648800 -9.190400 12.827500
H -1.413700 -9.587300 13.656300
H 1.227600 -9.592100 13.620200
H 3.440700 -9.203500 12.730500
H 5.620300 -8.663200 11.750700
H 3.874700 -6.399100 8.762000
H 1.611900 -6.869800 9.623500
H -1.897100 -6.863800 9.671200
H -4.181000 -6.385100 8.871700
C 6.232100 -3.264000 -10.151300
C 6.466200 -1.970900 -10.563600
C 7.199000 -1.725100 -11.738800
C 7.477200 -0.378800 -12.186500
C 8.125500 0.077600 -13.322900
C 8.129300 1.475800 -13.251400
C 7.483100 1.817400 -12.074200
C 7.211900 3.112500 -11.491500
C 7.660800 4.313900 -12.067700
C 7.391900 5.523700 -11.451700
C 6.252400 4.486700 -9.755400
C 6.479900 3.241100 -10.297300
O 7.084500 0.684600 -11.431200
C 7.641600 -2.863800 -12.434600
C 7.366300 -4.128700 -11.944900
H 5.659000 -3.456500 -9.244100
H 6.085600 -1.143300 -9.986400
H 8.545900 -0.504400 -14.118200
H 8.553000 2.133700 -13.983300
H 8.221400 4.311100 -12.988400
H 7.744700 6.451100 -11.894900
H 5.679900 4.588800 -8.833200
H 6.094800 2.361000 -9.807400
H 8.202200 -2.770200 -13.350500
H 7.714200 -5.007900 -12.480500
C -7.043700 -3.241600 -9.966500
C -7.283800 -1.947500 -10.372400
C -8.047200 -1.698700 -11.527300
C -8.332100 -0.351300 -11.967400
C -9.009200 0.107600 -13.085900
C -9.005800 1.505700 -13.014400
C -8.326900 1.844800 -11.855000
C -8.035400 3.138900 -11.279900
C -8.495700 4.341900 -11.843500
C -8.206000 5.550700 -11.235000
C -7.024200 4.509600 -9.570500
C -7.270700 3.264800 -10.106000
O -7.915300 0.710500 -11.223000
C -8.512900 -2.835700 -12.210900
C -8.229500 -4.101600 -11.728700
H -6.447000 -3.436300 -9.075200
H -6.884500 -1.121400 -9.805800
H -9.453000 -0.472800 -13.869600
H -9.446700 2.165300 -13.734600
H -9.081300 4.341200 -12.748600
H -8.567600 6.479400 -11.668400
H -6.426400 4.609500 -8.664300
H -6.875300 2.383300 -9.626900
H -9.097800 -2.739800 -13.111300
H -8.595300 -4.979500 -12.254700
C -4.259500 7.258300 -9.468900
C -2.994600 7.516600 -9.948900
C -2.821600 8.323500 -11.088000
C -1.505700 8.628100 -11.603800
C -1.120600 9.347500 -12.723700
C 0.279200 9.345000 -12.743400
C 0.693100 8.624200 -11.634700
C 2.021900 8.315000 -11.156000
C 2.223900 7.507300 -10.022200
C 3.500800 7.244600 -9.577900
C 4.431400 8.490600 -11.261000
C 3.185600 8.799200 -11.778800
O -0.397600 8.186500 -10.946100
C -4.000700 8.811900 -11.677900
C -5.232500 8.507500 -11.125400
H -4.395800 6.627900 -8.589900
H -2.133300 7.098200 -9.452700
H -1.750900 9.818700 -13.450900
H 0.890400 9.814000 -13.488000
H 1.375400 7.091900 -9.502200
H 3.659500 6.613700 -8.703100
H 5.329900 8.870600 -11.739800
H 3.126000 9.418000 -12.659500
H -3.963600 9.430500 -12.559900
H -6.142800 8.890700 -11.578900
C -4.293400 -6.001100 -10.144800
C -3.029600 -6.216200 -10.648300
C -2.860000 -6.904700 -11.863100
C -1.545400 -7.162200 -12.407000
C -1.163500 -7.767100 -13.593800
C 0.236400 -7.769300 -13.613400
C 0.653400 -7.165800 -12.437800
C 1.983500 -6.912500 -11.930900
C 3.145100 -7.336700 -12.600000
C 4.392200 -7.087400 -12.054300
C 3.467400 -6.013500 -10.253600
C 2.189200 -6.224400 -10.721500
O -0.435400 -6.794500 -11.708400
C -4.041200 -7.324900 -12.499400
C -5.271800 -7.071500 -11.919100
H -4.427000 -5.462100 -9.206700
H -2.166500 -5.854500 -10.112300
H -1.795700 -8.159700 -14.364600
H 0.845500 -8.163900 -14.401600
H 3.082700 -7.863100 -13.538600
H 5.289000 -7.421100 -12.569500
H 3.628900 -5.474900 -9.319600
H 1.342700 -5.859800 -10.161700
H -4.006800 -7.851400 -13.439400
H -6.183800 -7.402100 -12.409100
