192

C -0.843900 -1.524100 10.209800
C -2.038700 -0.837500 10.209800
C -2.073200 0.541000 10.209900
C -0.883600 1.269000 10.209900
C 0.293000 0.540900 10.209900
C 0.355100 -0.834200 10.209900
C 1.642000 -1.535400 10.209900
C -0.888200 2.717600 10.209900
C -3.310900 -1.538100 10.209900
H -0.800300 -2.603900 10.209800
H -2.989100 1.104500 10.209900
H 1.221400 1.136900 10.209900
H 1.723200 -2.601700 10.209900
H -1.820900 3.234500 10.209800
H -3.295400 -2.614200 10.209900
C -9.271900 -3.687100 -1.826800
C -8.875500 -4.834600 -1.175000
C -8.079700 -5.773500 -1.796600
C -7.659400 -5.572100 -3.111100
C -8.079800 -4.407300 -3.728500
C -8.873700 -3.454700 -3.131000
C -9.278500 -2.244200 -3.851200
C -6.823000 -6.540400 -3.790200
C -9.280000 -5.102100 0.194100
H -9.895300 -2.942100 -1.353400
H -7.754400 -6.678000 -1.314400
H -7.735700 -4.268600 -4.767500
H -9.894200 -1.486600 -3.414800
H -6.524500 -7.423500 -3.272300
H -9.901400 -4.375700 0.688700
C 6.944900 -5.859100 -2.083900
C 7.740500 -4.942000 -1.432100
C 8.155700 -3.783300 -2.053700
C 7.771000 -3.520100 -3.368200
C 6.972500 -4.466500 -3.985700
C 6.544500 -5.630400 -3.388100
C 5.698600 -6.586200 -4.108300
C 8.191500 -2.311600 -4.047300
C 8.174300 -5.158600 -0.063000
H 6.611400 -6.771500 -1.610500
H 8.776300 -3.049400 -1.571500
H 6.680400 -4.237900 -5.024700
H 5.350300 -7.498200 -3.671900
H 8.807000 -1.611500 -3.529400
H 7.855900 -6.059900 0.431600
C 0.935100 9.860500 -2.359400
C -0.256900 10.091000 -1.707600
C -1.467900 9.871200 -2.329200
C -1.503600 9.406500 -3.643700
C -0.284700 9.188200 -4.261200
C 0.937200 9.399400 -3.663600
C 2.187900 9.144800 -4.383900
C -2.760400 9.166300 -4.322900
C -0.286200 10.575000 -0.338500
H 1.892000 10.027900 -1.886000
H -2.413900 10.041700 -1.847000
H -0.336700 8.820800 -5.300200
H 3.151900 9.299100 -3.947500
H -3.674500 9.349400 -3.804900
H 0.653500 10.749900 0.156000
C -7.136300 -4.280100 7.678200
C -6.429300 -3.875900 8.800600
C -5.396200 -2.987300 8.641200
C -5.057800 -2.499500 7.400400
C -5.789200 -2.929900 6.312200
C -6.838400 -3.822100 6.411900
C -7.568100 -4.233000 5.216000
C -8.910900 -4.551800 5.228300
C -9.589500 -4.938600 4.088800
C -8.940700 -5.022800 2.874900
C -7.599700 -4.704100 2.864400
C -6.919600 -4.317300 4.001800
N -9.613200 -5.418600 1.683700
N -4.659600 -2.558600 9.773000
H -7.956000 -4.983200 7.798000
H -6.705700 -4.266800 9.776300
H -4.233400 -1.800800 7.334000
H -5.529400 -2.552600 5.340000
H -9.436600 -4.495600 6.155300
H -10.648400 -5.190800 4.091100
H -7.067300 -4.763700 1.920900
H -5.857900 -4.066100 3.985300
C 5.689800 -3.168900 7.439000
C 4.986200 -2.758700 8.561500
C 3.699700 -2.309300 8.402200
C 3.107600 -2.261200 7.161500
C 3.846100 -2.679400 6.073300
C 5.143800 -3.141000 6.172900
C 5.864500 -3.567300 4.976900
C 6.812800 -4.570100 4.989400
C 7.487000 -4.964400 3.850000
C 7.234700 -4.361300 2.635800
C 6.287500 -3.360000 2.625100
C 5.612400 -2.964400 3.762500
N 7.913700 -4.745800 1.444700
N 2.960100 -1.885800 9.533900
H 6.708800 -3.526400 7.558700
H 5.463200 -2.801800 9.537000
H 2.090100 -1.897500 7.095200
H 3.389100 -2.643900 5.101200
H 7.027500 -5.053000 5.916600
H 8.235400 -5.754800 3.852400
H 6.072300 -2.869700 1.681500
H 4.863400 -2.171100 3.745900
C -0.444600 6.944900 7.016700
C -0.448000 6.130400 8.139200
C -0.193100 4.791800 7.980000
C 0.062100 4.255200 6.739400
C 0.055000 5.103800 5.651300
C -0.195000 6.458200 5.750700
C -0.186100 7.295600 4.554800
C 0.207400 8.618400 4.567400
C 0.211800 9.399500 3.428000
C -0.183600 8.879200 2.213700
C -0.576300 7.558000 2.202800
C -0.581400 6.775500 3.340200
N -0.190100 9.659500 1.022500
N -0.190100 3.939500 9.111800
H -0.645200 8.006000 7.136300
H -0.649900 6.565000 9.114600
H 0.256600 3.192200 6.673300
H 0.253300 4.690400 4.679200
H 0.517500 9.046000 5.494800
H 0.521400 10.443000 3.430500
H -0.892700 7.126300 1.259000
H -0.893300 5.730000 3.323400
C -2.094700 -8.163800 -5.214000
C -3.481400 -8.151900 -5.201500
C -4.124400 -7.037700 -4.724500
C -3.421200 -5.948200 -4.265300
C -2.042800 -6.005100 -4.296900
C -1.342000 -7.098800 -4.765400
C 0.117900 -7.088100 -4.768800
C 0.871300 -7.747900 -5.718500
C 2.252600 -7.729000 -5.710500
C 2.943700 -7.038900 -4.736900
C 2.189800 -6.380600 -3.789200
C 0.809300 -6.398100 -3.795400
N 4.366800 -7.001300 -4.702400
N -5.540500 -7.001300 -4.702400
H -1.579700 -9.043100 -5.591100
H -4.027000 -9.017700 -5.567400
H -3.980900 -5.096500 -3.900100
H -1.487800 -5.157100 -3.939200
H 0.361000 -8.290400 -6.482900
H 2.853000 -8.246400 -6.456600
H 2.711100 -5.831300 -3.012300
H 0.219400 -5.873900 -3.041800
C -7.589000 2.639900 -5.716700
C -8.268700 1.431100 -5.709800
C -7.877900 0.463100 -4.819500
C -6.835900 0.673300 -3.946500
C -6.188900 1.891500 -3.989600
C -6.537900 2.902200 -4.863400
C -5.807600 4.166300 -4.852200
C -6.397200 5.376700 -5.156000
C -5.694500 6.565900 -5.140900
C -4.354400 6.590300 -4.816400
C -3.767200 5.380700 -4.513300
C -4.467500 4.191000 -4.527700
N -3.603800 7.800100 -4.792600
N -8.557500 -0.779800 -4.792600
H -7.894200 3.410700 -6.419100
H -9.091100 1.275900 -6.403100
H -6.570800 -0.126000 -3.266100
H -5.373700 2.061600 -3.310200
H -7.433400 5.385700 -5.411400
H -6.153100 7.524000 -5.378700
H -2.713300 5.374200 -4.255700
H -3.995500 3.237300 -4.286000
C 7.213200 2.831900 -5.154700
C 7.896300 1.625100 -5.142100
C 7.252900 0.511200 -4.665100
C 5.957800 0.575400 -4.205900
C 5.317800 1.797600 -4.237500
C 5.914600 2.951300 -4.706100
C 5.175400 4.210300 -4.709400
C 5.370100 5.192700 -5.659200
C 4.663100 6.379500 -5.651100
C 3.719800 6.632900 -4.677500
C 3.526700 5.650900 -3.729800
C 4.232100 4.464100 -3.736000
N 2.975800 7.846500 -4.643000
N 7.929400 -0.733400 -4.643000
H 7.717200 3.717600 -5.531800
H 8.918900 1.585500 -5.508100
H 5.500000 -0.335200 -3.840800
H 4.305900 1.854200 -3.879800
H 6.095000 5.022000 -6.423600
H 4.810900 7.158100 -6.397200
H 2.790300 5.827700 -2.952900
H 4.073100 3.691100 -2.982400
