116

C 9.237200 2.793700 -1.852400
C 10.709200 2.442900 -2.705600
O 11.303200 3.376300 -3.620700
C 12.128700 2.729600 -4.749800
C 13.659300 2.176100 -4.303800
C 14.219300 1.685000 -3.202600
C 15.619900 1.178900 -3.189000
C 16.770300 2.052500 -3.771100
C 18.464300 2.203800 -3.464600
O 19.541800 1.374300 -2.392000
C 19.826700 -0.226300 -1.737800
C 18.331700 -1.807200 -1.868200
C 16.099000 2.831400 -4.793500
C 14.667100 3.115700 -4.960200
H 9.425200 2.326600 -0.851800
H 9.199200 3.839400 -1.662500
H 11.490200 2.231900 -1.957000
H 10.353200 1.604400 -3.314200
H 11.578700 1.931600 -5.026800
H 12.158200 3.334200 -5.649700
H 13.542600 1.450400 -2.440000
H 15.653900 0.023900 -3.221100
H 18.563300 1.641800 -4.437800
H 19.126000 2.094800 -4.315200
H 20.736000 -0.891300 -1.599700
H 20.840100 0.249300 -1.315800
H 18.302900 -1.478700 -0.854500
H 17.884900 -2.172900 -0.926500
H 16.197100 2.349600 -5.775400
H 14.250900 3.850400 -5.628900
C 16.467000 -2.120200 -2.775700
O 14.904000 -2.433800 -2.246000
H 16.432600 -2.636500 -3.852900
H 16.871300 -3.110000 -2.503200
C 13.262100 -2.314600 -2.577500
O 12.304100 -2.583400 -3.868900
H 13.089900 -3.268000 -2.274400
H 12.742300 -1.705900 -1.772400
C 10.800600 -2.972200 -3.686200
O 10.385200 -2.374000 -2.443500
H 10.649000 -4.048700 -3.778800
H 10.244100 -2.492700 -4.602100
C 9.687400 -3.187900 -1.424100
O 8.683900 -2.230400 -0.967800
H 10.527700 -3.184300 -0.593100
H 10.655500 -3.294400 -0.693200
C 31.145300 -0.702300 3.297800
C 30.582600 -0.392800 4.853000
O 30.370200 -1.372800 5.910500
C 29.280800 -0.832800 6.907800
C 27.796600 -1.000700 7.560100
C 27.004800 -1.862400 8.451400
C 25.573800 -2.006800 8.121900
C 24.870700 -1.280000 6.938800
C 23.159300 -0.753200 6.384200
O 22.187700 -0.823000 5.071500
C 22.250200 -0.304000 3.652200
C 20.775200 -0.297000 2.512500
C 25.608300 -0.032000 7.068100
C 26.943200 0.103200 7.299700
H 31.590300 0.338700 2.978100
H 32.250800 -1.378200 3.474100
H 29.470500 0.184400 4.476800
H 31.516000 0.128700 5.302100
H 29.117100 0.211100 6.502400
H 29.890200 -0.242500 7.664800
H 27.378000 -2.593900 9.305000
H 24.730800 -1.997000 7.394200
H 22.493000 -1.072000 7.128000
H 23.069900 0.333000 6.567600
H 22.479800 0.770300 3.697300
H 23.165100 -0.665600 3.125000
H 20.674500 -1.398700 2.316400
H 20.069900 0.220200 3.073400
H 25.015100 0.890800 7.295300
H 27.183800 1.123400 7.281300
C 29.633600 -1.204800 1.013100
O 29.825100 -0.871300 2.508100
H 30.370800 -0.796400 0.294700
H 29.810200 -2.306700 0.848200
C 27.394700 -0.191100 -0.587600
O 28.164300 -1.090400 0.388700
H 28.105200 0.392800 -1.255000
H 26.902600 0.715700 -0.149700
C 25.793400 -0.486300 -2.907100
O 26.381000 -0.962000 -1.454700
H 26.455900 -1.079900 -3.640600
H 26.205700 0.508700 -3.087800
C 22.733300 -0.429400 -4.132000
O 24.178300 -0.809500 -3.295600
H 22.657300 -1.229900 -4.840400
H 22.898800 0.658300 -4.395000
C 19.433100 -0.514500 -4.046500
O 21.120900 -0.346900 -3.683600
H 19.070900 -1.612500 -4.284100
H 19.266400 -0.163000 -5.186100
C 17.628100 0.516200 -1.314500
O 17.969500 -0.035900 -3.073800
H 16.705200 0.121300 -0.838000
H 16.510100 0.995000 -1.057800
C 20.348100 0.218000 0.801900
O 18.717900 0.497500 0.096000
H 21.364100 -0.538500 0.478300
H 20.841500 1.221100 1.050300
C 6.546100 2.204000 -1.454000
O 7.831200 2.294900 -2.321600
H 5.587200 2.707500 -1.928600
H 6.613400 3.178100 -0.751200
C 5.602900 -0.206600 -0.915800
O 6.348400 1.075300 -0.547500
H 4.379400 -0.280500 -1.162500
H 4.606800 -0.265700 -0.308800
C 7.262100 -2.673200 -0.591700
O 6.278000 -1.510200 -0.396700
H 6.956900 -3.618800 -1.143200
H 7.365500 -3.106500 0.462800
