17

C 1.151635 7.356945 3.317072
C 1.151635 7.556945 2.717072
C 1.151635 7.556945 2.917072
C 1.151635 7.556945 3.117072
C 1.151635 7.556945 3.317072
C 1.151635 7.756945 2.717072
C 1.151635 7.756945 2.917072
C 1.151635 7.756945 3.117072
C 1.151635 7.356945 3.117072
C 1.151635 7.356945 2.717072
C 1.151635 7.356945 2.917072
C 1.151635 7.156945 2.517072
C 1.151635 7.156945 2.717072
C 1.151635 7.156945 2.917072
C 1.351635 7.956945 2.717072
C 1.351635 7.956945 2.917072
C 1.351635 7.956945 3.117072
