31

C 8.351635 -2.043055 0.017072
C 8.351635 -1.543055 -0.482928
C 8.851635 -2.043055 0.017072
C 8.851635 -1.543055 -0.482928
C 8.851635 -0.543055 -1.982928
C 9.351635 -2.043055 0.017072
C 9.351635 -1.543055 -0.982928
C 9.351635 -1.543055 -0.482928
C 9.351635 -0.543055 -1.982928
C 9.351635 -0.043055 -2.482928
C 9.851635 -3.043055 0.017072
C 9.851635 -2.543055 0.017072
C 9.851635 -2.043055 -0.482928
C 9.851635 -1.543055 -1.982928
C 9.851635 -1.543055 -1.482928
C 9.851635 -1.543055 -0.982928
C 9.851635 -1.043055 -1.982928
C 9.851635 -0.543055 -2.482928
C 9.851635 -0.043055 -2.982928
C 10.351635 -3.543055 -0.482928
C 10.351635 -3.043055 -0.482928
C 10.351635 -2.543055 -0.982928
C 10.351635 -2.543055 -0.482928
C 10.351635 -2.043055 -1.982928
C 10.351635 -2.043055 -1.482928
C 10.351635 -2.043055 -0.982928
C 10.351635 -1.543055 -2.482928
C 10.351635 -1.043055 -2.982928
C 10.351635 -1.043055 -2.482928
C 10.351635 -0.543055 -3.482928
C 10.351635 -0.543055 -2.982928
