15

C 0.351635 1.456945 6.017072
C 0.351635 1.456945 6.517072
C 0.351635 1.456945 7.017072
C 0.351635 1.456945 7.517072
C -0.148365 1.456945 6.017072
C 1.351635 1.956945 6.017072
C 0.851635 1.456945 6.017072
C 0.851635 1.456945 6.517072
C 0.851635 1.456945 7.017072
C 0.851635 1.956945 5.517072
C -0.148365 1.456945 6.517072
C -0.148365 1.456945 7.017072
C -0.148365 1.456945 7.517072
C -0.648365 1.456945 6.517072
C -0.648365 1.456945 7.017072
