13

C -0.648365 -10.543055 -6.482928
C -1.148365 -10.543055 -6.482928
C -1.148365 -10.043055 -6.982928
C -0.648365 -10.543055 -5.982928
C -0.648365 -10.043055 -6.982928
C -0.648365 -10.543055 -5.482928
C -0.148365 -10.043055 -6.982928
C -0.648365 -9.543055 -7.482928
C -0.148365 -9.543055 -7.482928
C -0.648365 -9.043055 -7.982928
C -0.148365 -9.043055 -7.982928
C -0.648365 -8.543055 -7.982928
C -0.648365 -8.043055 -7.982928
