27

C 5.551635 2.956945 -2.282928
C 5.551635 3.156945 -2.482928
C 5.551635 3.156945 -2.282928
C 5.551635 3.356945 -2.282928
C 4.151635 2.556945 -2.482928
C 4.751635 2.756945 -2.282928
C 5.951635 3.156945 -2.482928
C 5.951635 3.356945 -2.482928
C 5.951635 3.556945 -2.482928
C 5.951635 3.756945 -2.482928
C 4.951635 2.756945 -2.282928
C 4.951635 2.956945 -2.282928
C 4.351635 2.156945 -2.282928
C 4.351635 2.356945 -2.282928
C 4.351635 2.556945 -2.282928
C 4.351635 2.756945 -2.282928
C 5.751635 3.156945 -2.482928
C 5.151635 2.956945 -2.282928
C 5.751635 3.156945 -2.282928
C 5.751635 3.356945 -2.482928
C 5.751635 3.356945 -2.282928
C 6.151635 3.956945 -2.682928
C 6.151635 4.156945 -2.682928
C 5.351635 2.956945 -2.282928
C 5.351635 3.156945 -2.282928
C 4.551635 2.556945 -2.282928
C 4.551635 2.756945 -2.282928
