16

C 5.351635 -2.043055 0.017072
C 4.851635 -2.043055 0.517072
C 5.351635 -1.543055 0.517072
C 4.851635 -1.543055 1.017072
C 5.851635 -1.043055 1.017072
C 6.851635 -1.543055 0.517072
C 6.351635 -2.543055 0.017072
C 6.351635 -2.043055 0.017072
C 6.351635 -1.543055 0.517072
C 6.351635 -1.043055 1.017072
C 5.851635 -2.543055 0.017072
C 5.851635 -2.043055 0.017072
C 5.851635 -1.543055 0.517072
C 5.351635 -3.043055 0.017072
C 6.851635 -2.543055 0.017072
C 5.351635 -2.543055 0.017072
