13

C -4.648365 2.956945 -1.982928
C -5.148365 1.456945 -1.482928
C -5.148365 1.956945 -1.482928
C -5.148365 2.456945 -1.482928
C -3.148365 1.956945 -3.482928
C -3.648365 1.456945 -2.982928
C -3.648365 1.956945 -2.982928
C -3.648365 1.956945 -2.482928
C -3.648365 2.456945 -2.482928
C -4.148365 1.456945 -1.982928
C -4.148365 1.956945 -1.982928
C -4.148365 2.456945 -1.982928
C -4.648365 1.956945 -1.482928
