10

C -9.148365 -6.543055 7.517072
C -9.148365 -6.543055 8.017072
C -9.148365 -6.043055 8.517072
C -9.148365 -5.543055 9.017072
C -8.648365 -6.543055 7.517072
C -8.648365 -6.543055 8.017072
C -8.648365 -6.543055 8.517072
C -9.648365 -5.543055 8.017072
C -9.648365 -5.543055 8.517072
C -9.648365 -5.043055 8.517072
