15

C 3.851635 8.456945 -7.482928
C 4.851635 7.956945 -7.982928
C 4.851635 8.456945 -7.482928
C 5.351635 7.956945 -7.982928
C 5.351635 8.456945 -7.482928
C 5.351635 8.956945 -6.982928
C 4.851635 8.956945 -6.982928
C 4.851635 8.956945 -6.482928
C 5.351635 8.956945 -6.482928
C 4.351635 7.956945 -7.982928
C 4.351635 8.456945 -7.482928
C 4.351635 8.956945 -6.982928
C 4.351635 8.956945 -6.482928
C 5.851635 8.456945 -7.482928
C 5.851635 8.456945 -6.982928
