10

C -5.148365 -5.043055 1.517072
C -5.648365 -5.543055 1.017072
C -5.648365 -5.043055 1.017072
C -5.648365 -4.043055 1.017072
C -6.148365 -6.043055 1.017072
C -6.148365 -5.543055 0.517072
C -6.148365 -5.043055 0.517072
C -6.148365 -4.543055 0.517072
C -6.148365 -4.043055 0.517072
C -5.148365 -4.543055 1.517072
