29

C 7.351635 -8.543055 -1.982928
C 7.351635 -8.543055 -1.482928
C 7.351635 -8.043055 -0.482928
C 4.351635 -9.043055 -2.982928
C 4.351635 -8.543055 -2.482928
C 4.851635 -9.043055 -2.982928
C 4.851635 -8.043055 -1.982928
C 4.851635 -7.543055 -1.482928
C 5.351635 -9.043055 -2.982928
C 5.351635 -9.043055 -2.482928
C 5.351635 -8.543055 -1.982928
C 5.351635 -8.043055 -1.482928
C 5.351635 -8.043055 -0.982928
C 5.351635 -7.543055 -0.482928
C 5.851635 -9.043055 -2.982928
C 5.851635 -8.543055 -1.982928
C 5.851635 -8.543055 -1.482928
C 5.851635 -8.043055 -0.482928
C 5.851635 -7.543055 0.017072
C 6.351635 -9.043055 -2.982928
C 6.351635 -8.543055 -1.982928
C 6.351635 -8.543055 -1.482928
C 6.351635 -8.543055 -0.982928
C 6.351635 -8.043055 -0.482928
C 6.351635 -7.543055 0.017072
C 6.851635 -8.543055 -2.482928
C 6.851635 -8.543055 -1.482928
C 6.851635 -8.543055 -0.982928
C 6.851635 -8.043055 -0.482928
