16

C 2.851635 0.956945 11.017072
C 2.851635 1.456945 9.517072
C 2.851635 1.456945 10.017072
C 2.851635 1.456945 10.517072
C 2.851635 1.456945 11.017072
C 2.351635 1.956945 9.017072
C 2.851635 1.956945 9.517072
C 2.351635 2.456945 9.517072
C 2.851635 1.956945 10.017072
C 2.351635 2.456945 10.017072
C 2.851635 1.956945 10.517072
C 2.351635 2.456945 10.517072
C 2.851635 1.956945 11.017072
C 2.351635 2.456945 11.017072
C 2.351635 1.956945 11.517072
C 1.851635 2.956945 10.517072
