19

C -1.148365 7.456945 -6.482928
C -1.148365 8.456945 -6.982928
C -1.148365 8.956945 -6.982928
C -1.148365 9.456945 -6.982928
C -0.648365 7.456945 -6.482928
C -0.648365 7.956945 -6.982928
C -0.648365 8.456945 -6.982928
C -0.648365 8.956945 -6.982928
C -0.648365 9.456945 -6.982928
C -0.148365 6.956945 -5.982928
C -0.148365 7.456945 -6.482928
C -0.148365 7.956945 -6.982928
C -0.148365 8.456945 -6.982928
C -0.148365 8.956945 -6.982928
C -0.148365 9.456945 -6.982928
C 0.351635 7.456945 -6.482928
C 0.351635 8.456945 -6.982928
C 0.351635 8.956945 -6.982928
C 0.351635 9.456945 -6.982928
