11

C -2.648365 -1.043055 7.017072
C -2.648365 -1.043055 7.517072
C -3.148365 -1.043055 6.017072
C -3.148365 -0.543055 6.517072
C -3.148365 -0.543055 7.017072
C -3.648365 -0.543055 6.017072
C -3.148365 -0.543055 7.517072
C -3.648365 -0.043055 7.017072
C -3.648365 -0.043055 7.517072
C -2.648365 -1.543055 6.517072
C -2.648365 -1.043055 6.517072
