403

C -6.486600 0.386100 -2.827300
C -6.486600 0.386100 -1.827300
C -6.486600 0.386100 0.172700
C -6.486600 0.386100 1.172700
C -6.486600 0.386100 2.172700
C -6.486600 1.386100 -0.827300
C -6.486600 1.386100 0.172700
C -6.486600 1.386100 1.172700
C -6.486600 2.386100 -1.827300
C -6.486600 2.386100 -0.827300
C -6.486600 2.386100 0.172700
C -6.486600 3.386100 -1.827300
C -5.486600 -0.613900 -3.827300
C -5.486600 0.386100 5.172700
C -5.486600 1.386100 1.172700
C -5.486600 1.386100 2.172700
C -5.486600 1.386100 3.172700
C -5.486600 2.386100 0.172700
C -5.486600 2.386100 1.172700
C -5.486600 2.386100 2.172700
C -5.486600 3.386100 -0.827300
C -5.486600 3.386100 0.172700
C -5.486600 3.386100 1.172700
C -5.486600 4.386100 -0.827300
C -4.486600 0.386100 5.172700
C -4.486600 1.386100 2.172700
C -4.486600 1.386100 3.172700
C -4.486600 1.386100 4.172700
C -4.486600 1.386100 5.172700
C -4.486600 2.386100 0.172700
C -4.486600 2.386100 1.172700
C -4.486600 2.386100 2.172700
C -4.486600 2.386100 3.172700
C -4.486600 2.386100 4.172700
C -4.486600 3.386100 0.172700
C -4.486600 3.386100 1.172700
C -4.486600 3.386100 2.172700
C -4.486600 3.386100 3.172700
C -4.486600 4.386100 0.172700
C -4.486600 4.386100 1.172700
C -4.486600 4.386100 2.172700
C -4.486600 5.386100 -0.827300
C -4.486600 5.386100 0.172700
C -4.486600 6.386100 -0.827300
C -3.486600 -5.613900 -0.827300
C -3.486600 -5.613900 0.172700
C -3.486600 -5.613900 1.172700
C -3.486600 -2.613900 -4.827300
C -3.486600 -1.613900 -5.827300
C -3.486600 -0.613900 -5.827300
C -3.486600 1.386100 1.172700
C -3.486600 1.386100 2.172700
C -3.486600 1.386100 3.172700
C -3.486600 1.386100 4.172700
C -3.486600 1.386100 5.172700
C -3.486600 1.386100 6.172700
C -3.486600 2.386100 0.172700
C -3.486600 2.386100 1.172700
C -3.486600 2.386100 2.172700
C -3.486600 2.386100 3.172700
C -3.486600 2.386100 4.172700
C -3.486600 2.386100 5.172700
C -3.486600 3.386100 0.172700
C -3.486600 3.386100 1.172700
C -3.486600 3.386100 2.172700
C -3.486600 3.386100 3.172700
C -3.486600 3.386100 4.172700
C -3.486600 3.386100 5.172700
C -3.486600 4.386100 0.172700
C -3.486600 4.386100 1.172700
C -3.486600 4.386100 2.172700
C -3.486600 4.386100 3.172700
C -3.486600 4.386100 4.172700
C -3.486600 5.386100 0.172700
C -3.486600 5.386100 1.172700
C -3.486600 5.386100 2.172700
C -3.486600 5.386100 3.172700
C -3.486600 6.386100 -0.827300
C -3.486600 6.386100 0.172700
C -3.486600 6.386100 1.172700
C -2.486600 -5.613900 -0.827300
C -2.486600 -5.613900 0.172700
C -2.486600 -5.613900 1.172700
C -2.486600 -4.613900 1.172700
C -2.486600 -4.613900 2.172700
C -2.486600 -3.613900 -5.827300
C -2.486600 -2.613900 -5.827300
C -2.486600 -1.613900 -5.827300
C -2.486600 -0.613900 -5.827300
C -2.486600 0.386100 -5.827300
C -2.486600 1.386100 1.172700
C -2.486600 1.386100 2.172700
C -2.486600 2.386100 0.172700
C -2.486600 2.386100 1.172700
C -2.486600 2.386100 2.172700
C -2.486600 2.386100 6.172700
C -2.486600 3.386100 0.172700
C -2.486600 3.386100 1.172700
C -2.486600 4.386100 0.172700
C -2.486600 4.386100 1.172700
C -2.486600 5.386100 0.172700
C -2.486600 5.386100 1.172700
C -2.486600 6.386100 -0.827300
C -2.486600 6.386100 0.172700
C -2.486600 6.386100 1.172700
C -2.486600 7.386100 -0.827300
C -2.486600 7.386100 0.172700
C -2.486600 7.386100 1.172700
C -2.486600 7.386100 2.172700
C -1.486600 -5.613900 0.172700
C -1.486600 -5.613900 1.172700
C -1.486600 -4.613900 1.172700
C -1.486600 -4.613900 2.172700
C -1.486600 -4.613900 3.172700
C -1.486600 -4.613900 4.172700
C -1.486600 -3.613900 -5.827300
C -1.486600 -3.613900 2.172700
C -1.486600 -3.613900 6.172700
C -1.486600 -2.613900 -5.827300
C -1.486600 -1.613900 -5.827300
C -1.486600 -0.613900 -5.827300
C -1.486600 -0.613900 1.172700
C -1.486600 0.386100 -5.827300
C -1.486600 0.386100 -4.827300
C -1.486600 0.386100 0.172700
C -1.486600 0.386100 1.172700
C -1.486600 1.386100 -5.827300
C -1.486600 1.386100 -0.827300
C -1.486600 1.386100 0.172700
C -1.486600 1.386100 1.172700
C -1.486600 2.386100 -5.827300
C -1.486600 2.386100 -0.827300
C -1.486600 2.386100 0.172700
C -1.486600 2.386100 1.172700
C -1.486600 3.386100 -6.827300
C -1.486600 3.386100 0.172700
C -1.486600 3.386100 1.172700
C -1.486600 3.386100 6.172700
C -1.486600 7.386100 0.172700
C -0.486600 -5.613900 0.172700
C -0.486600 -5.613900 1.172700
C -0.486600 -4.613900 1.172700
C -0.486600 -4.613900 2.172700
C -0.486600 -4.613900 3.172700
C -0.486600 -4.613900 4.172700
C -0.486600 -3.613900 -5.827300
C -0.486600 -3.613900 1.172700
C -0.486600 -3.613900 2.172700
C -0.486600 -3.613900 6.172700
C -0.486600 -2.613900 -5.827300
C -0.486600 -2.613900 1.172700
C -0.486600 -2.613900 2.172700
C -0.486600 -1.613900 -5.827300
C -0.486600 -1.613900 0.172700
C -0.486600 -1.613900 1.172700
C -0.486600 -1.613900 2.172700
C -0.486600 -0.613900 -5.827300
C -0.486600 -0.613900 -4.827300
C -0.486600 -0.613900 -0.827300
C -0.486600 -0.613900 0.172700
C -0.486600 -0.613900 1.172700
C -0.486600 0.386100 -5.827300
C -0.486600 0.386100 -4.827300
C -0.486600 0.386100 -3.827300
C -0.486600 0.386100 -0.827300
C -0.486600 0.386100 0.172700
C -0.486600 0.386100 1.172700
C -0.486600 1.386100 -5.827300
C -0.486600 1.386100 -4.827300
C -0.486600 1.386100 -1.827300
C -0.486600 1.386100 -0.827300
C -0.486600 1.386100 0.172700
C -0.486600 1.386100 1.172700
C -0.486600 2.386100 -6.827300
C -0.486600 2.386100 -5.827300
C -0.486600 2.386100 -0.827300
C -0.486600 2.386100 0.172700
C -0.486600 2.386100 1.172700
C -0.486600 3.386100 -6.827300
C 0.513400 -5.613900 0.172700
C 0.513400 -5.613900 1.172700
C 0.513400 -4.613900 0.172700
C 0.513400 -4.613900 1.172700
C 0.513400 -4.613900 2.172700
C 0.513400 -4.613900 3.172700
C 0.513400 -4.613900 4.172700
C 0.513400 -3.613900 0.172700
C 0.513400 -3.613900 1.172700
C 0.513400 -3.613900 2.172700
C 0.513400 -3.613900 3.172700
C 0.513400 -3.613900 6.172700
C 0.513400 -2.613900 -5.827300
C 0.513400 -2.613900 1.172700
C 0.513400 -2.613900 2.172700
C 0.513400 -1.613900 -5.827300
C 0.513400 -1.613900 -4.827300
C 0.513400 -1.613900 0.172700
C 0.513400 -1.613900 1.172700
C 0.513400 -0.613900 -5.827300
C 0.513400 -0.613900 -4.827300
C 0.513400 -0.613900 -3.827300
C 0.513400 -0.613900 -0.827300
C 0.513400 -0.613900 0.172700
C 0.513400 -0.613900 1.172700
C 0.513400 0.386100 -5.827300
C 0.513400 0.386100 -4.827300
C 0.513400 0.386100 -3.827300
C 0.513400 0.386100 -2.827300
C 0.513400 0.386100 -1.827300
C 0.513400 0.386100 -0.827300
C 0.513400 0.386100 0.172700
C 0.513400 0.386100 1.172700
C 0.513400 1.386100 -6.827300
C 0.513400 1.386100 -5.827300
C 0.513400 1.386100 -1.827300
C 0.513400 1.386100 -0.827300
C 0.513400 1.386100 0.172700
C 0.513400 1.386100 1.172700
C 0.513400 2.386100 -6.827300
C 0.513400 2.386100 0.172700
C 0.513400 2.386100 1.172700
C 0.513400 3.386100 -6.827300
C 0.513400 4.386100 -6.827300
C 1.513400 -5.613900 -0.827300
C 1.513400 -5.613900 0.172700
C 1.513400 -5.613900 1.172700
C 1.513400 -4.613900 0.172700
C 1.513400 -4.613900 1.172700
C 1.513400 -4.613900 2.172700
C 1.513400 -4.613900 3.172700
C 1.513400 -4.613900 4.172700
C 1.513400 -3.613900 1.172700
C 1.513400 -3.613900 2.172700
C 1.513400 -3.613900 3.172700
C 1.513400 -3.613900 4.172700
C 1.513400 -3.613900 5.172700
C 1.513400 -3.613900 6.172700
C 1.513400 -2.613900 -5.827300
C 1.513400 -2.613900 1.172700
C 1.513400 -2.613900 2.172700
C 1.513400 -1.613900 -5.827300
C 1.513400 -1.613900 -4.827300
C 1.513400 -0.613900 -6.827300
C 1.513400 -0.613900 -5.827300
C 1.513400 -0.613900 -4.827300
C 1.513400 -0.613900 1.172700
C 1.513400 0.386100 -6.827300
C 1.513400 0.386100 -5.827300
C 1.513400 0.386100 -4.827300
C 1.513400 0.386100 -3.827300
C 1.513400 0.386100 -2.827300
C 1.513400 0.386100 -1.827300
C 1.513400 0.386100 -0.827300
C 1.513400 0.386100 0.172700
C 1.513400 0.386100 1.172700
C 1.513400 1.386100 -6.827300
C 1.513400 1.386100 -5.827300
C 1.513400 1.386100 -0.827300
C 1.513400 1.386100 0.172700
C 1.513400 1.386100 1.172700
C 1.513400 2.386100 -6.827300
C 1.513400 2.386100 0.172700
C 1.513400 2.386100 1.172700
C 1.513400 3.386100 -6.827300
C 1.513400 4.386100 -6.827300
C 1.513400 4.386100 6.172700
C 2.513400 -6.613900 -1.827300
C 2.513400 -5.613900 -0.827300
C 2.513400 -5.613900 0.172700
C 2.513400 -5.613900 1.172700
C 2.513400 -4.613900 0.172700
C 2.513400 -4.613900 1.172700
C 2.513400 -4.613900 2.172700
C 2.513400 -4.613900 3.172700
C 2.513400 -4.613900 4.172700
C 2.513400 -3.613900 2.172700
C 2.513400 -3.613900 6.172700
C 2.513400 -2.613900 -5.827300
C 2.513400 -1.613900 -6.827300
C 2.513400 -1.613900 -5.827300
C 2.513400 -0.613900 -6.827300
C 2.513400 -0.613900 -5.827300
C 2.513400 0.386100 -6.827300
C 2.513400 0.386100 -5.827300
C 2.513400 0.386100 -4.827300
C 2.513400 0.386100 1.172700
C 2.513400 1.386100 -6.827300
C 2.513400 1.386100 -0.827300
C 2.513400 1.386100 0.172700
C 2.513400 1.386100 1.172700
C 2.513400 2.386100 -6.827300
C 2.513400 2.386100 0.172700
C 2.513400 2.386100 1.172700
C 2.513400 2.386100 6.172700
C 2.513400 3.386100 -6.827300
C 2.513400 3.386100 1.172700
C 2.513400 3.386100 6.172700
C 2.513400 4.386100 -6.827300
C 2.513400 5.386100 4.172700
C 2.513400 5.386100 5.172700
C 3.513400 -5.613900 -0.827300
C 3.513400 -5.613900 0.172700
C 3.513400 -5.613900 1.172700
C 3.513400 -4.613900 0.172700
C 3.513400 -4.613900 1.172700
C 3.513400 -4.613900 2.172700
C 3.513400 -4.613900 3.172700
C 3.513400 -4.613900 4.172700
C 3.513400 -3.613900 6.172700
C 3.513400 -2.613900 -5.827300
C 3.513400 -1.613900 -6.827300
C 3.513400 -1.613900 -5.827300
C 3.513400 -0.613900 -6.827300
C 3.513400 -0.613900 -5.827300
C 3.513400 0.386100 -6.827300
C 3.513400 0.386100 -5.827300
C 3.513400 1.386100 -6.827300
C 3.513400 1.386100 -0.827300
C 3.513400 1.386100 0.172700
C 3.513400 1.386100 1.172700
C 3.513400 1.386100 6.172700
C 3.513400 2.386100 0.172700
C 3.513400 2.386100 1.172700
C 3.513400 2.386100 2.172700
C 3.513400 2.386100 6.172700
C 3.513400 3.386100 1.172700
C 3.513400 3.386100 2.172700
C 3.513400 3.386100 3.172700
C 3.513400 3.386100 4.172700
C 3.513400 3.386100 5.172700
C 3.513400 4.386100 1.172700
C 3.513400 4.386100 2.172700
C 3.513400 4.386100 3.172700
C 3.513400 4.386100 4.172700
C 3.513400 5.386100 2.172700
C 3.513400 5.386100 3.172700
C 4.513400 -5.613900 -0.827300
C 4.513400 -5.613900 0.172700
C 4.513400 -4.613900 -0.827300
C 4.513400 -4.613900 0.172700
C 4.513400 -3.613900 -4.827300
C 4.513400 -2.613900 -5.827300
C 4.513400 -2.613900 -4.827300
C 4.513400 -1.613900 -6.827300
C 4.513400 -1.613900 -5.827300
C 4.513400 -0.613900 -6.827300
C 4.513400 -0.613900 -5.827300
C 4.513400 0.386100 -6.827300
C 4.513400 0.386100 -5.827300
C 4.513400 1.386100 1.172700
C 4.513400 1.386100 2.172700
C 4.513400 1.386100 6.172700
C 4.513400 2.386100 -0.827300
C 4.513400 2.386100 0.172700
C 4.513400 2.386100 1.172700
C 4.513400 2.386100 2.172700
C 4.513400 2.386100 3.172700
C 4.513400 2.386100 4.172700
C 4.513400 2.386100 5.172700
C 4.513400 3.386100 -0.827300
C 4.513400 3.386100 0.172700
C 4.513400 3.386100 1.172700
C 4.513400 3.386100 2.172700
C 4.513400 3.386100 3.172700
C 4.513400 3.386100 4.172700
C 4.513400 4.386100 0.172700
C 4.513400 4.386100 1.172700
C 4.513400 4.386100 2.172700
C 4.513400 5.386100 -1.827300
C 4.513400 5.386100 -0.827300
C 4.513400 5.386100 0.172700
C 5.513400 -4.613900 -0.827300
C 5.513400 -4.613900 0.172700
C 5.513400 -3.613900 -1.827300
C 5.513400 -1.613900 -5.827300
C 5.513400 -0.613900 -6.827300
C 5.513400 0.386100 -6.827300
C 5.513400 1.386100 2.172700
C 5.513400 1.386100 3.172700
C 5.513400 2.386100 0.172700
C 5.513400 2.386100 1.172700
C 5.513400 2.386100 2.172700
C 5.513400 2.386100 3.172700
C 5.513400 2.386100 4.172700
C 5.513400 3.386100 -0.827300
C 5.513400 3.386100 0.172700
C 5.513400 3.386100 1.172700
C 5.513400 3.386100 2.172700
C 5.513400 4.386100 -1.827300
C 5.513400 4.386100 -0.827300
C 5.513400 4.386100 0.172700
C 5.513400 5.386100 -2.827300
C 5.513400 5.386100 -1.827300
C 6.513400 -3.613900 0.172700
C 6.513400 1.386100 1.172700
C 6.513400 1.386100 2.172700
C 6.513400 1.386100 3.172700
C 6.513400 2.386100 0.172700
C 6.513400 2.386100 1.172700
C 6.513400 3.386100 -0.827300
C 7.513400 0.386100 2.172700
C 7.513400 1.386100 -0.827300
C 7.513400 1.386100 0.172700
