192

C 0.469200 -1.056300 4.655900
C -0.717900 -0.308500 4.701400
C -0.660000 1.072800 4.458800
C 0.544700 1.699600 4.112000
C 1.709700 0.917500 4.044800
C 1.696800 -0.455200 4.342000
C 2.944600 -1.318400 4.263900
C 0.663500 3.195600 3.896800
C -2.038900 -0.963400 5.043500
H 0.428800 -2.126200 4.856800
H -1.567500 1.668900 4.538200
H 2.647900 1.392600 3.762300
C -4.061900 -0.577400 -0.626800
C -3.719200 -1.834300 -0.110100
C -2.876100 -2.665300 -0.865200
C -2.333800 -2.244300 -2.089700
C -2.670500 -0.962000 -2.560300
C -3.550600 -0.126400 -1.854400
C -3.918000 1.271200 -2.321600
C -1.503200 -3.152100 -2.981500
C -4.298400 -2.340800 1.195300
H -4.732400 0.064900 -0.057000
H -2.642600 -3.653700 -0.479300
H -2.244100 -0.611300 -3.498800
C 3.663400 -1.865900 -0.411100
C 4.864200 -1.219100 -0.068300
C 5.542900 -0.488400 -1.056900
C 5.051700 -0.413400 -2.368700
C 3.865800 -1.089800 -2.686500
C 3.163300 -1.821000 -1.718100
C 1.930400 -2.610600 -2.114600
C 5.794700 0.345600 -3.443700
C 5.401800 -1.232200 1.351800
H 3.115000 -2.424400 0.346300
H 6.464900 0.034000 -0.806500
H 3.480900 -1.060700 -3.704600
C 1.999400 4.233500 -1.745400
C 1.004200 5.011400 -1.138200
C -0.232300 5.156100 -1.787400
C -0.502800 4.503900 -2.999400
C 0.516000 3.744500 -3.592400
C 1.770900 3.604900 -2.980500
C 2.857800 2.794700 -3.651400
C -1.852600 4.623500 -3.675600
H 2.964300 4.116000 -1.257600
H -1.000400 5.767400 -1.318200
H 0.327500 3.248200 -4.542300
C -6.525300 -2.820800 5.022400
C -5.480800 -3.695000 5.709100
C -4.100800 -3.039000 5.702700
C -3.656300 -2.677400 4.273800
C -4.728300 -1.775800 3.570900
C -6.109900 -2.455500 3.597900
N -4.349900 -1.302000 2.225300
N -2.281000 -2.148900 4.219000
H -6.676600 -1.904300 5.605700
H -7.486600 -3.346700 5.000100
H -5.426200 -4.666400 5.202400
H -5.788400 -3.891600 6.742400
H -3.376200 -3.723700 6.160200
H -4.140300 -2.142700 6.333600
H -3.615200 -3.625900 3.721600
H -4.831100 -0.861700 4.170600
H -6.101900 -3.372000 2.995500
H -6.865500 -1.790000 3.163200
C 7.391200 -3.465700 4.910900
C 7.267900 -2.254600 5.826500
C 5.866100 -1.648100 5.793000
C 5.434900 -1.297900 4.354600
C 5.523400 -2.574100 3.444300
C 6.951300 -3.152800 3.481700
N 5.053200 -2.461600 2.057000
N 4.175000 -0.536000 4.377700
H 6.778800 -4.284700 5.308000
H 8.428600 -3.818900 4.906400
H 7.998900 -1.494700 5.523500
H 7.518300 -2.543100 6.853800
H 5.863800 -0.748800 6.421900
H 5.152400 -2.351500 6.240200
H 6.181500 -0.584000 3.979200
H 4.872600 -3.335100 3.897400
H 7.658900 -2.445600 3.030800
H 7.003900 -4.076200 2.891500
C 0.484500 8.055800 3.902300
C -0.503700 7.445500 4.887400
C -0.390600 5.924000 4.919300
C -0.567800 5.317700 3.515500
C 0.452100 5.934400 2.497400
C 0.325700 7.470100 2.500400
N 0.216100 5.373200 1.155100
N -0.607600 3.842100 3.570800
H 1.508500 7.882300 4.255800
H 0.340800 9.141600 3.864200
H -1.525200 7.732300 4.608900
H -0.321400 7.849000 5.889900
H -1.150600 5.523900 5.601700
H 0.587400 5.659400 5.337900
H -1.573000 5.612300 3.179700
H 1.466900 5.670900 2.824100
H -0.650500 7.765900 2.094600
H 1.088200 7.923600 1.857600
C 1.272000 -6.137000 -5.599700
C 0.081800 -6.815300 -4.940100
C -0.745700 -5.808400 -4.150500
C 0.093800 -5.062400 -3.089800
C 1.362200 -4.395500 -3.725100
C 2.142700 -5.433700 -4.566600
N 2.337200 -3.865000 -2.752700
N -0.758900 -4.185000 -2.257700
H 1.869000 -6.882800 -6.136800
H 0.922300 -5.410600 -6.343400
H -0.544500 -7.286700 -5.706000
H 0.429200 -7.613900 -4.273600
H -1.579900 -6.333700 -3.669100
H -1.180400 -5.099700 -4.865400
H 0.470400 -5.828200 -2.396000
H 1.054100 -3.595700 -4.411100
H 2.587700 -6.191000 -3.906300
H 2.975000 -4.943800 -5.088600
C -6.235000 5.003900 -4.576400
C -6.333700 3.760000 -5.451000
C -5.770400 2.521500 -4.755600
C -4.317300 2.740200 -4.283500
C -4.243000 4.015200 -3.367100
C -4.805900 5.247900 -4.096300
N -2.934300 4.280700 -2.758400
N -3.762800 1.470900 -3.764100
H -6.897700 4.893800 -3.709200
H -6.587800 5.876700 -5.137400
H -5.788200 3.929900 -6.387600
H -7.380900 3.583600 -5.721600
H -5.819100 1.678600 -5.456500
H -6.409500 2.262600 -3.901900
H -3.734000 2.950500 -5.189700
H -4.915200 3.829200 -2.517600
H -4.180000 5.501200 -4.960900
H -4.799400 6.118300 -3.428800
C 6.314400 3.479000 -7.056700
C 7.597400 3.136400 -6.309900
C 7.337400 2.140100 -5.183300
C 6.252400 2.646000 -4.212800
C 4.932800 3.017400 -4.972900
C 5.242900 4.010000 -6.109200
N 3.928600 3.668800 -4.119300
N 6.044300 1.738500 -3.066800
H 5.938400 2.587200 -7.573100
H 6.526900 4.228500 -7.827300
H 8.038200 4.051600 -5.896200
H 8.329400 2.717200 -7.009400
H 8.273000 1.961200 -4.639600
H 7.041100 1.185300 -5.634600
H 6.638700 3.576300 -3.772200
H 4.510500 2.117900 -5.438900
H 4.331400 4.217200 -6.684500
H 5.579300 4.969400 -5.693100
H -2.839500 -0.228900 4.908600
H -2.010000 -1.233200 6.105400
H -2.043700 -1.930700 3.251700
H -3.690100 -3.183500 1.540000
H -5.304200 -2.715700 0.975600
H -3.439500 -0.845200 2.275500
H 1.381300 3.367600 3.086700
H 1.084200 3.607000 4.820000
H -0.938100 3.483600 2.675200
C 1.257300 5.708400 0.181000
H 1.284600 6.784800 -0.019700
H 2.239200 5.415100 0.571200
H 0.179400 4.356100 1.219700
H -1.864100 3.965300 -4.550100
H -1.964200 5.651000 -4.041500
H -3.018400 5.010400 -2.055000
H -3.277400 1.958000 -1.761200
H -4.962600 1.454200 -2.042000
H -4.197200 0.687500 -4.247200
H 2.425800 2.243700 -4.495700
H 3.216200 2.047200 -2.938400
H 4.370400 4.138800 -3.332500
H 5.210400 0.288700 -4.368700
H 6.745100 -0.168800 -3.629100
H 5.248400 2.078500 -2.529900
H 2.892000 -1.843500 3.306500
H 2.909300 -2.057600 5.073000
H 4.123800 0.027000 5.224700
H 4.985300 -0.350400 1.847700
H 6.492600 -1.127800 1.320800
H 5.361600 -3.261200 1.506600
H 1.342000 -1.978100 -2.789600
H 1.319400 -2.809800 -1.228100
H 3.226300 -3.703500 -3.222400
H -0.806900 -2.529500 -3.552300
H -2.207200 -3.606500 -3.687300
H -1.426100 -4.781200 -1.773600
