34

Fe -0.318000 0.479400 -0.432800
C -1.153800 3.371700 -0.732300
N -0.486000 2.476900 -0.117700
C 0.771900 2.724500 0.482400
C 1.813700 1.729300 0.079700
N 1.463100 0.527700 -0.117700
Br 2.700300 -0.807900 -0.629300
H -2.114100 3.197200 -1.194600
H -0.750900 4.371500 -0.805600
H 1.103000 3.741900 0.194000
H 0.674000 2.637600 1.589300
H 2.859300 2.028900 -0.043100
C -0.627500 1.266000 -3.185300
N -0.012900 0.598100 -2.290500
C 0.587200 -0.659800 -2.538100
C 0.184500 -1.701500 -1.542900
N -0.012900 -1.351000 -0.341400
Br -0.524400 -2.588200 0.994300
H -1.089800 2.226200 -3.010800
H -0.700800 0.863000 -4.185200
H 0.298900 -0.990900 -3.555600
H 1.694200 -0.561800 -2.451200
H 0.061800 -2.747100 -1.842600
C -3.119400 0.883700 -1.257500
N -2.224600 0.269100 -0.589600
C -2.472200 -0.331000 0.668300
C -1.477000 0.071700 1.710100
N -0.275500 0.269100 1.359500
Br 1.060200 0.780700 2.596700
H -2.944900 1.346000 -2.217700
H -4.119300 0.957000 -0.854500
H -3.489700 -0.042600 0.999400
H -2.385300 -1.437900 0.570300
H -1.776700 0.194500 2.755600
