
     RDKit          3D

  0  0  0  0  0  0  0  0  0  0999 V3000
M  V30 BEGIN CTAB
M  V30 COUNTS 558 596 0 0 0
M  V30 BEGIN ATOM
M  V30 1 Pd 2.7587 5.6837 0.1695 0 CHG=2
M  V30 2 Pd 2.8948 -6.2902 0.2259 0 CHG=2
M  V30 3 N 4.6043 5.0628 0.1287 0
M  V30 4 C 5.0360 6.2099 -0.4346 0
M  V30 5 C 6.3906 6.3125 -0.7254 0
M  V30 6 C 7.2398 5.2619 -0.4344 0
M  V30 7 C 6.7560 4.0987 0.1580 0
M  V30 8 C 5.4049 4.0319 0.4355 0
M  V30 9 C 7.5828 2.9975 0.4456 0
M  V30 10 C 8.2198 1.9776 0.6583 0
M  V30 11 H 4.9777 3.1579 0.8919 0
M  V30 12 H 4.3814 7.0405 -0.6813 0
M  V30 13 H 6.7782 7.2061 -1.1850 0
M  V30 14 H 8.2892 5.3219 -0.6726 0
M  V30 15 N 4.7884 -6.1478 -0.5160 0
M  V30 16 C 5.2323 -7.0129 -1.4458 0
M  V30 17 C 6.4865 -6.8632 -1.9810 0
M  V30 18 C 7.2793 -5.8155 -1.5632 0
M  V30 19 C 6.8163 -4.9207 -0.6035 0
M  V30 20 C 5.5488 -5.1259 -0.0900 0
M  V30 21 C 7.5912 -3.8256 -0.1779 0
M  V30 22 C 8.2199 -2.8390 0.1730 0
M  V30 23 H 5.1588 -4.4683 0.6656 0
M  V30 24 H 4.5798 -7.8085 -1.7621 0
M  V30 25 H 6.8462 -7.5545 -2.7248 0
M  V30 26 H 8.2634 -5.6772 -1.9772 0
M  V30 27 C 10.8476 -0.5269 1.3993 0
M  V30 28 C 10.1792 0.6848 1.3050 0
M  V30 29 C 8.8804 0.7467 0.8226 0
M  V30 30 C 8.2455 -0.4343 0.4608 0
M  V30 31 C 8.8876 -1.6615 0.5585 0
M  V30 32 C 10.1965 -1.6896 1.0189 0
M  V30 33 H 10.7289 -2.6229 1.0655 0
M  V30 34 H 10.6781 1.5942 1.5806 0
M  V30 35 H 7.2396 -0.3957 0.0833 0
M  V30 36 C 12.2724 -0.5951 1.7923 0
M  V30 37 O 12.9900 -1.4444 1.2899 0
M  V30 38 N 12.7759 0.3204 2.6915 0
M  V30 39 C 14.1970 0.4585 2.8833 0
M  V30 40 C 14.6725 1.7172 2.2181 0
M  V30 41 H 14.6775 -0.4181 2.4427 0
M  V30 42 H 14.4210 0.4434 3.9540 0
M  V30 43 O 13.9494 2.6940 2.2214 0
M  V30 44 N 15.8922 1.7308 1.5624 0
M  V30 45 H 12.2310 1.1308 2.9910 0
M  V30 46 C 16.0251 2.6209 0.4223 0
M  V30 47 H 16.4221 0.8609 1.4832 0
M  V30 48 H 15.1712 3.3045 0.4569 0
M  V30 49 H 15.8992 2.0288 -0.4828 0
M  V30 50 C 17.3097 3.4415 0.3166 0
M  V30 51 C 18.5704 2.6154 0.2493 0
M  V30 52 C 17.2466 4.3852 -0.8664 0
M  V30 53 C 16.8439 3.9429 -2.1175 0
M  V30 54 C 16.8277 4.8029 -3.1938 0
M  V30 55 C 17.2285 6.1121 -3.0388 0
M  V30 56 C 17.6496 6.5592 -1.8057 0
M  V30 57 C 17.6584 5.7002 -0.7296 0
M  V30 58 H 17.9822 6.0410 0.2387 0
M  V30 59 H 16.5611 2.9124 -2.2539 0
M  V30 60 H 16.5149 4.4465 -4.1615 0
M  V30 61 H 17.2249 6.7816 -3.8833 0
M  V30 62 H 17.9753 7.5791 -1.6830 0
M  V30 63 C 19.6925 3.0449 0.9393 0
M  V30 64 C 20.8885 2.3699 0.8324 0
M  V30 65 C 20.9837 1.2684 0.0102 0
M  V30 66 C 19.8844 0.8505 -0.7081 0
M  V30 67 C 18.6845 1.5193 -0.5899 0
M  V30 68 H 17.8315 1.1960 -1.1641 0
M  V30 69 H 19.6209 3.9456 1.5249 0
M  V30 70 H 21.7535 2.7159 1.3744 0
M  V30 71 H 21.9219 0.7464 -0.0861 0
M  V30 72 H 19.9681 0.0086 -1.3761 0
M  V30 73 H 17.3704 4.0493 1.2318 0
M  V30 74 C 11.3048 4.7071 -1.6151 0
M  V30 75 O 10.1663 4.6065 -1.1810 0
M  V30 76 C 12.8540 3.1479 -2.8441 0
M  V30 77 C 12.1696 3.5018 -1.6868 0
M  V30 78 C 13.7292 2.0873 -2.8368 0
M  V30 79 C 13.9119 1.3243 -1.6899 0
M  V30 80 C 12.3166 2.7121 -0.5565 0
M  V30 81 C 13.1617 1.6294 -0.5614 0
M  V30 82 H 13.2831 1.0439 0.3312 0
M  V30 83 H 12.7014 3.7219 -3.7418 0
M  V30 84 H 14.3080 1.8477 -3.7126 0
M  V30 85 H 11.7880 2.9926 0.3377 0
M  V30 86 C 15.0151 0.3304 -1.6445 0
M  V30 87 O 16.0929 0.6270 -2.1397 0
M  V30 88 C 16.9624 0.4934 5.0654 0
M  V30 89 O 15.8242 0.0769 5.2174 0
M  V30 90 C 18.4123 2.4835 4.5159 0
M  V30 91 C 17.1725 1.9410 4.8421 0
M  V30 92 C 18.5025 3.7706 4.0420 0
M  V30 93 C 17.3620 4.5444 3.8668 0
M  V30 94 C 16.0503 2.7572 4.7712 0
M  V30 95 C 16.1359 4.0348 4.2771 0
M  V30 96 H 15.2393 4.6120 4.1361 0
M  V30 97 H 19.3020 1.8865 4.6001 0
M  V30 98 H 19.4552 4.1844 3.7584 0
M  V30 99 H 15.0934 2.3434 5.0405 0
M  V30 100 C 17.4408 5.7923 3.0761 0
M  V30 101 O 18.2655 5.8792 2.1788 0
M  V30 102 N 16.5257 6.7964 3.3254 0
M  V30 103 C 15.4734 7.4461 1.1951 0
M  V30 104 C 15.3252 8.2937 0.1100 0
M  V30 105 C 14.8383 6.2157 1.1595 0
M  V30 106 C 14.0948 5.8344 0.0636 0
M  V30 107 H 14.9468 5.5423 1.9902 0
M  V30 108 C 13.9694 6.6709 -1.0302 0
M  V30 109 H 13.6054 4.8774 0.0476 0
M  V30 110 C 14.5850 7.9112 -0.9887 0
M  V30 111 H 15.8078 9.2560 0.1273 0
M  V30 112 H 14.4908 8.5748 -1.8310 0
M  V30 113 C 16.3224 7.8589 2.3592 0
M  V30 114 H 15.8857 8.7318 2.8563 0
M  V30 115 H 17.3123 8.1633 2.0021 0
M  V30 116 C 13.2253 6.2193 -2.2458 0
M  V30 117 N 11.8095 5.9420 -1.9970 0
M  V30 118 H 13.7105 5.3278 -2.6473 0
M  V30 119 H 13.2999 6.9741 -3.0357 0
M  V30 120 H 11.2550 6.7708 -1.7889 0
M  V30 121 H 15.7823 6.6733 4.0161 0
M  V30 122 N 14.8152 -0.8839 -1.0101 0
M  V30 123 C 16.4244 -1.8848 0.5464 0
M  V30 124 C 17.6174 -1.2759 0.8894 0
M  V30 125 C 15.6865 -2.4952 1.5454 0
M  V30 126 C 16.1242 -2.4868 2.8536 0
M  V30 127 H 14.7356 -2.9369 1.2978 0
M  V30 128 C 17.3153 -1.8680 3.1959 0
M  V30 129 H 15.5231 -2.9362 3.6255 0
M  V30 130 C 18.0582 -1.2680 2.1945 0
M  V30 131 H 18.1991 -0.7991 0.1230 0
M  V30 132 H 18.9823 -0.7777 2.4474 0
M  V30 133 C 15.9072 -1.8250 -0.8568 0
M  V30 134 H 15.5694 -2.8164 -1.1774 0
M  V30 135 H 16.7036 -1.5312 -1.5488 0
M  V30 136 C 17.7617 -1.7668 4.6222 0
M  V30 137 N 18.0299 -0.3873 4.9845 0
M  V30 138 H 18.6475 -2.3870 4.7976 0
M  V30 139 H 16.9765 -2.1321 5.2928 0
M  V30 140 H 18.9463 -0.0547 4.6812 0
M  V30 141 H 14.0801 -1.0022 -0.2978 0
M  V30 142 N 2.9834 5.6573 2.2342 0
M  V30 143 C 3.6497 6.6368 2.8712 0
M  V30 144 C 3.9284 6.5209 4.2094 0
M  V30 145 C 3.5305 5.3880 4.8859 0
M  V30 146 C 2.8420 4.3766 4.2236 0
M  V30 147 C 2.5742 4.5533 2.8784 0
M  V30 148 C 2.4794 3.1914 4.8895 0
M  V30 149 C 2.2555 2.1391 5.4673 0
M  V30 150 H 2.0421 3.7995 2.3272 0
M  V30 151 H 3.9685 7.4957 2.3064 0
M  V30 152 H 4.4678 7.2988 4.7235 0
M  V30 153 H 3.7644 5.2628 5.9300 0
M  V30 154 N 3.6145 -6.0543 2.1201 0
M  V30 155 C 4.5547 -6.8851 2.6055 0
M  V30 156 C 5.0630 -6.6871 3.8641 0
M  V30 157 C 4.6061 -5.6279 4.6190 0
M  V30 158 C 3.6341 -4.7696 4.1141 0
M  V30 159 C 3.1494 -5.0224 2.8435 0
M  V30 160 C 3.1706 -3.6658 4.8545 0
M  V30 161 C 2.7959 -2.6774 5.4666 0
M  V30 162 H 2.3853 -4.3950 2.4217 0
M  V30 163 H 4.8996 -7.6925 1.9827 0
M  V30 164 H 5.8158 -7.3502 4.2567 0
M  V30 165 H 4.9986 -5.4521 5.6059 0
M  V30 166 C 1.6023 -0.3697 8.1126 0
M  V30 167 C 1.6718 0.8416 7.4398 0
M  V30 168 C 2.1123 0.9038 6.1255 0
M  V30 169 C 2.4682 -0.2755 5.4840 0
M  V30 170 C 2.4034 -1.5014 6.1334 0
M  V30 171 C 1.9767 -1.5299 7.4539 0
M  V30 172 H 1.9533 -2.4621 7.9899 0
M  V30 173 H 1.4145 1.7519 7.9477 0
M  V30 174 H 2.8211 -0.2359 4.4693 0
M  V30 175 C 1.2320 -0.4413 9.5437 0
M  V30 176 O 1.7341 -1.2991 10.2518 0
M  V30 177 N 0.3469 0.4797 10.0616 0
M  V30 178 C 0.1571 0.6025 11.4839 0
M  V30 179 C 0.8600 1.8312 11.9826 0
M  V30 180 H 0.5688 -0.2950 11.9508 0
M  V30 181 H -0.9145 0.6181 11.7049 0
M  V30 182 O 0.9114 2.8126 11.2677 0
M  V30 183 N 1.4837 1.8112 13.2183 0
M  V30 184 H 0.0518 1.2979 9.5260 0
M  V30 185 C 2.6433 2.6681 13.3955 0
M  V30 186 H 1.5181 0.9353 13.7434 0
M  V30 187 H 2.6621 3.3520 12.5415 0
M  V30 188 H 3.5360 2.0511 13.3046 0
M  V30 189 C 2.7202 3.4850 14.6847 0
M  V30 190 C 2.6901 2.6582 15.9460 0
M  V30 191 C 3.9432 4.3785 14.6822 0
M  V30 192 C 5.1932 3.8837 14.3422 0
M  V30 193 C 6.3043 4.6976 14.3816 0
M  V30 194 C 6.1846 6.0122 14.7768 0
M  V30 195 C 4.9522 6.5108 15.1376 0
M  V30 196 C 3.8418 5.6978 15.0909 0
M  V30 197 H 2.8747 6.0781 15.3712 0
M  V30 198 H 5.2997 2.8481 14.0658 0
M  V30 199 H 7.2706 4.3008 14.1169 0
M  V30 200 H 7.0556 6.6457 14.8165 0
M  V30 201 H 4.8566 7.5346 15.4600 0
M  V30 202 C 1.9871 3.1333 17.0413 0
M  V30 203 C 2.0060 2.4562 18.2406 0
M  V30 204 C 2.7535 1.3056 18.3667 0
M  V30 205 C 3.4850 0.8407 17.2953 0
M  V30 206 C 3.4542 1.5120 16.0913 0
M  V30 207 H 4.0414 1.1534 15.2616 0
M  V30 208 H 1.4620 4.0687 16.9464 0
M  V30 209 H 1.4549 2.8379 19.0845 0
M  V30 210 H 2.7821 0.7814 19.3082 0
M  V30 211 H 4.0970 -0.0398 17.4054 0
M  V30 212 H 1.8294 4.1305 14.7016 0
M  V30 213 C 4.8844 4.6774 8.8192 0
M  V30 214 O 4.4596 4.5983 7.6757 0
M  V30 215 C 5.9970 3.0831 10.4206 0
M  V30 216 C 4.8866 3.4658 9.6766 0
M  V30 217 C 5.9220 2.0116 11.2790 0
M  V30 218 C 4.7535 1.2674 11.3845 0
M  V30 219 C 3.7379 2.6916 9.7438 0
M  V30 220 C 3.6758 1.5996 10.5738 0
M  V30 221 H 2.7685 1.0277 10.6354 0
M  V30 222 H 6.9139 3.6383 10.3225 0
M  V30 223 H 6.7600 1.7471 11.9013 0
M  V30 224 H 2.8838 2.9859 9.1591 0
M  V30 225 C 4.6285 0.2548 12.4631 0
M  V30 226 O 5.0736 0.5161 13.5714 0
M  V30 227 C -2.0902 0.7212 14.2073 0
M  V30 228 O -2.2332 0.3099 13.0660 0
M  V30 229 C -1.5350 2.6949 15.6765 0
M  V30 230 C -1.8246 2.1601 14.4244 0
M  V30 231 C -1.0246 3.9665 15.7856 0
M  V30 232 C -0.7767 4.7313 14.6524 0
M  V30 233 C -1.6815 2.9712 13.3055 0
M  V30 234 C -1.1516 4.2327 13.4106 0
M  V30 235 H -0.9576 4.8044 12.5206 0
M  V30 236 H -1.6782 2.1032 16.5623 0
M  V30 237 H -0.7682 4.3729 16.7491 0
M  V30 238 H -1.9250 2.5649 12.3386 0
M  V30 239 C 0.0518 5.9521 14.7615 0
M  V30 240 O 0.9264 6.0054 15.6129 0
M  V30 241 N -0.1367 6.9670 13.8436 0
M  V30 242 C 2.0507 7.5371 12.8663 0
M  V30 243 C 3.1781 8.3356 12.7714 0
M  V30 244 C 2.0567 6.3118 12.2202 0
M  V30 245 C 3.1639 5.8868 11.5185 0
M  V30 246 H 1.1929 5.6760 12.2884 0
M  V30 247 C 4.2989 6.6733 11.4475 0
M  V30 248 H 3.1564 4.9344 11.0197 0
M  V30 249 C 4.2882 7.9092 12.0734 0
M  V30 250 H 3.1844 9.2937 13.2624 0
M  V30 251 H 5.1629 8.5343 12.0207 0
M  V30 252 C 0.8721 7.9948 13.6711 0
M  V30 253 H 0.4219 8.8822 13.2131 0
M  V30 254 H 1.2038 8.2912 14.6722 0
M  V30 255 C 5.5232 6.1712 10.7523 0
M  V30 256 N 5.3159 5.8938 9.3298 0
M  V30 257 H 5.8722 5.2693 11.2581 0
M  V30 258 H 6.3380 6.8962 10.8519 0
M  V30 259 H 5.1544 6.7287 8.7691 0
M  V30 260 H -0.8089 6.8688 13.0798 0
M  V30 261 N 3.9782 -0.9388 12.1997 0
M  V30 262 C 2.3268 -1.8765 13.7464 0
M  V30 263 C 1.9966 -1.2753 14.9468 0
M  V30 264 C 1.3092 -2.4050 12.9717 0
M  V30 265 C -0.0046 -2.3300 13.3855 0
M  V30 266 H 1.5502 -2.8374 12.0150 0
M  V30 267 C -0.3334 -1.7240 14.5869 0
M  V30 268 H -0.7897 -2.7176 12.7589 0
M  V30 269 C 0.6856 -1.2005 15.3629 0
M  V30 270 H 2.7792 -0.8611 15.5549 0
M  V30 271 H 0.4430 -0.7194 16.2946 0
M  V30 272 C 3.7420 -1.8949 13.2621 0
M  V30 273 H 4.0075 -2.8963 12.9064 0
M  V30 274 H 4.4322 -1.6639 14.0806 0
M  V30 275 C -1.7596 -1.5554 15.0115 0
M  V30 276 N -2.0604 -0.1610 15.2758 0
M  V30 277 H -1.9776 -2.1667 15.8941 0
M  V30 278 H -2.4348 -1.8888 14.2162 0
M  V30 279 H -1.7482 0.1582 16.1941 0
M  V30 280 H 3.2916 -1.0120 11.4344 0
M  V30 281 N 0.9278 5.0227 0.2168 0
M  V30 282 C 0.4703 6.1648 0.7697 0
M  V30 283 C -0.8858 6.2387 1.0621 0
M  V30 284 C -1.7108 5.1660 0.7830 0
M  V30 285 C -1.2010 4.0089 0.2007 0
M  V30 286 C 0.1508 3.9710 -0.0790 0
M  V30 287 C -2.0021 2.8853 -0.0723 0
M  V30 288 C -2.6162 1.8483 -0.2691 0
M  V30 289 H 0.5975 3.1020 -0.5263 0
M  V30 290 H 1.1058 7.0127 1.0074 0
M  V30 291 H -1.2933 7.1276 1.5138 0
M  V30 292 H -2.7606 5.2035 1.0237 0
M  V30 293 N 0.9984 -6.1874 0.9671 0
M  V30 294 C 0.5760 -7.0570 1.9026 0
M  V30 295 C -0.6804 -6.9327 2.4392 0
M  V30 296 C -1.4976 -5.9060 2.0167 0
M  V30 297 C -1.0569 -5.0065 1.0509 0
M  V30 298 C 0.2139 -5.1860 0.5360 0
M  V30 299 C -1.8575 -3.9320 0.6205 0
M  V30 300 C -2.5098 -2.9627 0.2643 0
M  V30 301 H 0.5873 -4.5248 -0.2249 0
M  V30 302 H 1.2470 -7.8357 2.2223 0
M  V30 303 H -1.0227 -7.6276 3.1879 0
M  V30 304 H -2.4838 -5.7877 2.4319 0
M  V30 305 C -5.1929 -0.7193 -0.9696 0
M  V30 306 C -4.5500 0.5071 -0.8911 0
M  V30 307 C -3.2504 0.6016 -0.4166 0
M  V30 308 C -2.5885 -0.5618 -0.0464 0
M  V30 309 C -3.2048 -1.8034 -0.1281 0
M  V30 310 C -4.5155 -1.8639 -0.5805 0
M  V30 311 H -5.0284 -2.8086 -0.6140 0
M  V30 312 H -5.0698 1.4028 -1.1734 0
M  V30 313 H -1.5816 -0.4980 0.3249 0
M  V30 314 C -6.6174 -0.8207 -1.3564 0
M  V30 315 O -7.3169 -1.6768 -0.8402 0
M  V30 316 N -7.1403 0.0728 -2.2663 0
M  V30 317 C -8.5636 0.1809 -2.4590 0
M  V30 318 C -9.0623 1.4418 -1.8150 0
M  V30 319 H -9.0272 -0.6966 -2.0027 0
M  V30 320 H -8.7879 0.1432 -3.5291 0
M  V30 321 O -8.3567 2.4311 -1.8335 0
M  V30 322 N -10.2830 1.4440 -1.1613 0
M  V30 323 H -6.6098 0.8863 -2.5828 0
M  V30 324 C -10.4342 2.3512 -0.0372 0
M  V30 325 H -10.7974 0.5664 -1.0684 0
M  V30 326 H -9.5932 3.0500 -0.0827 0
M  V30 327 H -10.2982 1.7774 0.8783 0
M  V30 328 C -11.7344 3.1488 0.0526 0
M  V30 329 C -12.9796 2.3003 0.1266 0
M  V30 330 C -11.6940 4.1093 1.2230 0
M  V30 331 C -11.2888 3.6912 2.4817 0
M  V30 332 C -11.2950 4.5652 3.5468 0
M  V30 333 C -11.7208 5.8640 3.3729 0
M  V30 334 C -12.1442 6.2869 2.1321 0
M  V30 335 C -12.1307 5.4141 1.0672 0
M  V30 336 H -12.4565 5.7359 0.0931 0
M  V30 337 H -10.9866 2.6683 2.6329 0
M  V30 338 H -10.9802 4.2274 4.5206 0
M  V30 339 H -11.7349 6.5443 4.2087 0
M  V30 340 H -12.4893 7.2985 1.9946 0
M  V30 341 C -14.1077 2.7013 -0.5706 0
M  V30 342 C -15.2916 2.0062 -0.4580 0
M  V30 343 C -15.3687 0.9130 0.3771 0
M  V30 344 C -14.2635 0.5234 1.1023 0
M  V30 345 C -13.0755 1.2122 0.9784 0
M  V30 346 H -12.2181 0.9112 1.5581 0
M  V30 347 H -14.0512 3.5961 -1.1668 0
M  V30 348 H -16.1616 2.3301 -1.0056 0
M  V30 349 H -16.2976 0.3755 0.4779 0
M  V30 350 H -14.3336 -0.3116 1.7804 0
M  V30 351 H -11.8029 3.7429 -0.8709 0
M  V30 352 C -5.7597 4.5505 1.9835 0
M  V30 353 O -4.6185 4.4676 1.5529 0
M  V30 354 C -7.2805 2.9768 3.2289 0
M  V30 355 C -6.6000 3.3289 2.0687 0
M  V30 356 C -8.1354 1.8997 3.2330 0
M  V30 357 C -8.3006 1.1189 2.0955 0
M  V30 358 C -6.7287 2.5220 0.9482 0
M  V30 359 C -7.5532 1.4236 0.9650 0
M  V30 360 H -7.6608 0.8242 0.0798 0
M  V30 361 H -7.1412 3.5651 4.1194 0
M  V30 362 H -8.7117 1.6603 4.1105 0
M  V30 363 H -6.2027 2.8008 0.0519 0
M  V30 364 C -9.3843 0.1035 2.0604 0
M  V30 365 O -10.4703 0.3872 2.5452 0
M  V30 366 C -11.3300 0.1389 -4.6416 0
M  V30 367 O -10.1850 -0.2615 -4.7863 0
M  V30 368 C -12.8134 2.1141 -4.1292 0
M  V30 369 C -11.5640 1.5863 -4.4424 0
M  V30 370 C -12.9260 3.4071 -3.6768 0
M  V30 371 C -11.7986 4.2018 -3.5102 0
M  V30 372 C -10.4553 2.4216 -4.3813 0
M  V30 373 C -10.5631 3.7055 -3.9082 0
M  V30 374 H -9.6765 4.2994 -3.7739 0
M  V30 375 H -13.6932 1.5014 -4.2069 0
M  V30 376 H -13.8861 3.8100 -3.4029 0
M  V30 377 H -9.4909 2.0189 -4.6404 0
M  V30 378 C -11.9002 5.4602 -2.7389 0
M  V30 379 O -12.7289 5.5470 -1.8454 0
M  V30 380 N -11.0006 6.4751 -3.0007 0
M  V30 381 C -9.9678 7.1718 -0.8759 0
M  V30 382 C -9.8396 8.0360 0.1985 0
M  V30 383 C -9.3114 5.9533 -0.8214 0
M  V30 384 C -8.5662 5.5996 0.2825 0
M  V30 385 H -9.4042 5.2675 -1.6438 0
M  V30 386 C -8.4605 6.4525 1.3657 0
M  V30 387 H -8.0596 4.6519 0.3130 0
M  V30 388 C -9.0977 7.6810 1.3053 0
M  V30 389 H -10.3388 8.9893 0.1664 0
M  V30 390 H -9.0187 8.3572 2.1390 0
M  V30 391 C -10.8176 7.5547 -2.0497 0
M  V30 392 H -10.3915 8.4264 -2.5579 0
M  V30 393 H -11.8135 7.8497 -1.7014 0
M  V30 394 C -7.7126 6.0304 2.5895 0
M  V30 395 N -6.2905 5.7792 2.3493 0
M  V30 396 H -8.1814 5.1339 2.9993 0
M  V30 397 H -7.8059 6.7927 3.3702 0
M  V30 398 H -5.7525 6.6164 2.1329 0
M  V30 399 H -10.2535 6.3537 -3.6876 0
M  V30 400 N -9.1568 -1.1172 1.4480 0
M  V30 401 C -10.7469 -2.1703 -0.0933 0
M  V30 402 C -11.9532 -1.5910 -0.4410 0
M  V30 403 C -9.9975 -2.7761 -1.0866 0
M  V30 404 C -10.4375 -2.7921 -2.3940 0
M  V30 405 H -9.0369 -3.1940 -0.8358 0
M  V30 406 C -11.6423 -2.2031 -2.7409 0
M  V30 407 H -9.8278 -3.2367 -3.1619 0
M  V30 408 C -12.3962 -1.6076 -1.7452 0
M  V30 409 H -12.5436 -1.1182 0.3213 0
M  V30 410 H -13.3311 -1.1402 -2.0020 0
M  V30 411 C -10.2288 -2.0828 1.3080 0
M  V30 412 H -9.8699 -3.0629 1.6402 0
M  V30 413 H -11.0300 -1.7969 1.9978 0
M  V30 414 C -12.0925 -2.1274 -4.1676 0
M  V30 415 N -12.3832 -0.7573 -4.5472 0
M  V30 416 H -12.9687 -2.7637 -4.3334 0
M  V30 417 H -11.3028 -2.4890 -4.8349 0
M  V30 418 H -13.3043 -0.4353 -4.2470 0
M  V30 419 H -8.4183 -1.2321 0.7389 0
M  V30 420 N 2.5372 5.6334 -1.8950 0
M  V30 421 C 1.8643 6.6007 -2.5436 0
M  V30 422 C 1.5936 6.4707 -3.8821 0
M  V30 423 C 2.0069 5.3363 -4.5469 0
M  V30 424 C 2.7015 4.3373 -3.8725 0
M  V30 425 C 2.9603 4.5278 -2.5273 0
M  V30 426 C 3.0811 3.1513 -4.5273 0
M  V30 427 C 3.3181 2.0973 -5.0969 0
M  V30 428 H 3.4976 3.7844 -1.9670 0
M  V30 429 H 1.5334 7.4608 -1.9877 0
M  V30 430 H 1.0494 7.2388 -4.4058 0
M  V30 431 H 1.7807 5.2008 -5.5913 0
M  V30 432 N 2.1670 -6.0952 -1.6695 0
M  V30 433 C 1.2546 -6.9617 -2.1453 0
M  V30 434 C 0.7396 -6.7941 -3.4055 0
M  V30 435 C 1.1607 -5.7282 -4.1718 0
M  V30 436 C 2.1031 -4.8324 -3.6764 0
M  V30 437 C 2.5962 -5.0552 -2.4035 0
M  V30 438 C 2.5296 -3.7219 -4.4290 0
M  V30 439 C 2.8730 -2.7296 -5.0531 0
M  V30 440 H 3.3374 -4.3969 -1.9878 0
M  V30 441 H 0.9369 -7.7734 -1.5136 0
M  V30 442 H 0.0095 -7.4863 -3.7907 0
M  V30 443 H 0.7627 -5.5765 -5.1605 0
M  V30 444 C 3.9860 -0.4188 -7.7311 0
M  V30 445 C 3.9017 0.7958 -7.0664 0
M  V30 446 C 3.4764 0.8596 -5.7472 0
M  V30 447 C 3.1515 -0.3214 -5.0925 0
M  V30 448 C 3.2322 -1.5508 -5.7336 0
M  V30 449 C 3.6428 -1.5811 -7.0592 0
M  V30 450 H 3.6795 -2.5169 -7.5880 0
M  V30 451 H 4.1362 1.7068 -7.5841 0
M  V30 452 H 2.8109 -0.2810 -4.0736 0
M  V30 453 C 4.3434 -0.4943 -9.1653 0
M  V30 454 O 3.8455 -1.3625 -9.8637 0
M  V30 455 N 5.2124 0.4342 -9.6963 0
M  V30 456 C 5.3943 0.5471 -11.1204 0
M  V30 457 C 4.6794 1.7662 -11.6257 0
M  V30 458 H 4.9880 -0.3574 -11.5784 0
M  V30 459 H 6.4647 0.5697 -11.3464 0
M  V30 460 O 4.6240 2.7532 -10.9190 0
M  V30 461 N 4.0497 1.7305 -12.8579 0
M  V30 462 H 5.5047 1.2577 -9.1675 0
M  V30 463 C 2.8833 2.5775 -13.0370 0
M  V30 464 H 4.0196 0.8501 -13.3755 0
M  V30 465 H 2.8647 3.2694 -12.1894 0
M  V30 466 H 1.9954 1.9555 -12.9351 0
M  V30 467 C 2.7938 3.3816 -14.3334 0
M  V30 468 C 2.8236 2.5437 -15.5874 0
M  V30 469 C 1.5637 4.2652 -14.3333 0
M  V30 470 C 0.3190 3.7624 -13.9857 0
M  V30 471 C -0.7993 4.5663 -14.0291 0
M  V30 472 C -0.6920 5.8786 -14.4355 0
M  V30 473 C 0.5352 6.3848 -14.8033 0
M  V30 474 C 1.6527 5.5819 -14.7529 0
M  V30 475 H 2.6157 5.9681 -15.0392 0
M  V30 476 H 0.2222 2.7283 -13.7004 0
M  V30 477 H -1.7615 4.1632 -13.7590 0
M  V30 478 H -1.5686 6.5040 -14.4787 0
M  V30 479 H 0.6210 7.4068 -15.1344 0
M  V30 480 C 3.5131 3.0168 -16.6922 0
M  V30 481 C 3.4903 2.3306 -17.8862 0
M  V30 482 C 2.7527 1.1721 -17.9972 0
M  V30 483 C 2.0350 0.7083 -16.9160 0
M  V30 484 C 2.0694 1.3892 -15.7175 0
M  V30 485 H 1.4923 1.0316 -14.8803 0
M  V30 486 H 4.0301 3.9578 -16.6090 0
M  V30 487 H 4.0303 2.7111 -18.7378 0
M  V30 488 H 2.7208 0.6407 -18.9345 0
M  V30 489 H 1.4306 -0.1788 -17.0140 0
M  V30 490 H 3.6795 4.0338 -14.3609 0
M  V30 491 C 0.6422 4.5999 -8.4668 0
M  V30 492 O 1.0685 4.5338 -7.3231 0
M  V30 493 C -0.4605 2.9812 -10.0502 0
M  V30 494 C 0.6488 3.3810 -9.3136 0
M  V30 495 C -0.3780 1.9035 -10.9000 0
M  V30 496 C 0.7974 1.1701 -11.0038 0
M  V30 497 C 1.8048 2.6174 -9.3784 0
M  V30 498 C 1.8747 1.5193 -10.1997 0
M  V30 499 H 2.7874 0.9558 -10.2597 0
M  V30 500 H -1.3823 3.5284 -9.9535 0
M  V30 501 H -1.2155 1.6257 -11.5172 0
M  V30 502 H 2.6579 2.9248 -8.7990 0
M  V30 503 C 0.9281 0.1504 -12.0749 0
M  V30 504 O 0.4756 0.3986 -13.1832 0
M  V30 505 C 7.6319 0.6611 -13.8536 0
M  V30 506 O 7.7804 0.2612 -12.7090 0
M  V30 507 C 7.0474 2.6158 -15.3370 0
M  V30 508 C 7.3522 2.0956 -14.0824 0
M  V30 509 C 6.5252 3.8819 -15.4539 0
M  V30 510 C 6.2802 4.6555 -14.3260 0
M  V30 511 C 7.2103 2.9157 -12.9699 0
M  V30 512 C 6.6688 4.1716 -13.0827 0
M  V30 513 H 6.4768 4.7499 -12.1964 0
M  V30 514 H 7.1879 2.0170 -16.2185 0
M  V30 515 H 6.2579 4.2772 -16.4190 0
M  V30 516 H 7.4645 2.5204 -12.0012 0
M  V30 517 C 5.4417 5.8689 -14.4405 0
M  V30 518 O 4.5625 5.9086 -15.2879 0
M  V30 519 N 5.6267 6.8923 -13.5314 0
M  V30 520 C 3.4387 7.4507 -12.5488 0
M  V30 521 C 2.3048 8.2402 -12.4553 0
M  V30 522 C 3.4460 6.2302 -11.8936 0
M  V30 523 C 2.3451 5.8008 -11.1846 0
M  V30 524 H 4.3151 5.6015 -11.9603 0
M  V30 525 C 1.2035 6.5777 -11.1154 0
M  V30 526 H 2.3628 4.8524 -10.6783 0
M  V30 527 C 1.2012 7.8091 -11.7501 0
M  V30 528 H 2.2884 9.1947 -12.9530 0
M  V30 529 H 0.3212 8.4269 -11.6985 0
M  V30 530 C 4.6102 7.9128 -13.3615 0
M  V30 531 H 5.0548 8.8070 -12.9114 0
M  V30 532 H 4.2718 8.1995 -14.3632 0
M  V30 533 C -0.0137 6.0701 -10.4119 0
M  V30 534 N 0.2004 5.8081 -8.9876 0
M  V30 535 H -0.3549 5.1598 -10.9081 0
M  V30 536 H -0.8362 6.7858 -10.5159 0
M  V30 537 H 0.3545 6.6492 -8.4344 0
M  V30 538 H 6.3024 6.8049 -12.7696 0
M  V30 539 N 1.5912 -1.0346 -11.8052 0
M  V30 540 C 3.2436 -1.9700 -13.3517 0
M  V30 541 C 3.5635 -1.3743 -14.5576 0
M  V30 542 C 4.2688 -2.4849 -12.5779 0
M  V30 543 C 5.5801 -2.4024 -12.9981 0
M  V30 544 H 4.0354 -2.9125 -11.6171 0
M  V30 545 C 5.8986 -1.8021 -14.2052 0
M  V30 546 H 6.3710 -2.7791 -12.3723 0
M  V30 547 C 4.8720 -1.2919 -14.9800 0
M  V30 548 H 2.7750 -0.9701 -15.1648 0
M  V30 549 H 5.1067 -0.8150 -15.9159 0
M  V30 550 C 1.8308 -1.9970 -12.8610 0
M  V30 551 H 1.5755 -2.9978 -12.4961 0
M  V30 552 H 1.1349 -1.7785 -13.6781 0
M  V30 553 C 7.3215 -1.6251 -14.6375 0
M  V30 554 N 7.6094 -0.2304 -14.9144 0
M  V30 555 H 7.5408 -2.2418 -15.5159 0
M  V30 556 H 8.0029 -1.9462 -13.8424 0
M  V30 557 H 7.2948 0.0777 -15.8355 0
M  V30 558 H 2.2812 -1.0958 -11.0421 0
M  V30 END ATOM
M  V30 BEGIN BOND
M  V30 1 1 3 4
M  V30 2 2 4 5
M  V30 3 1 4 12
M  V30 4 1 5 6
M  V30 5 1 5 13
M  V30 6 2 6 7
M  V30 7 1 6 14
M  V30 8 1 7 8
M  V30 9 1 7 9
M  V30 10 2 8 3
M  V30 11 1 8 11
M  V30 12 3 9 10
M  V30 13 1 15 16
M  V30 14 2 16 17
M  V30 15 1 16 24
M  V30 16 1 17 18
M  V30 17 1 17 25
M  V30 18 2 18 19
M  V30 19 1 18 26
M  V30 20 1 19 20
M  V30 21 1 19 21
M  V30 22 2 20 15
M  V30 23 1 20 23
M  V30 24 3 21 22
M  V30 25 1 27 28
M  V30 26 2 28 29
M  V30 27 1 28 34
M  V30 28 1 29 30
M  V30 29 2 30 31
M  V30 30 1 30 35
M  V30 31 1 31 32
M  V30 32 2 32 27
M  V30 33 1 32 33
M  V30 34 1 10 29
M  V30 35 1 22 31
M  V30 36 2 36 37
M  V30 37 1 36 38
M  V30 38 1 38 39
M  V30 39 1 38 45
M  V30 40 1 39 40
M  V30 41 1 39 41
M  V30 42 1 39 42
M  V30 43 2 40 43
M  V30 44 1 40 44
M  V30 45 1 44 46
M  V30 46 1 44 47
M  V30 47 1 46 48
M  V30 48 1 46 49
M  V30 49 1 50 51
M  V30 50 1 50 52
M  V30 51 1 50 73
M  V30 52 1 51 63
M  V30 53 1 52 53
M  V30 54 2 53 54
M  V30 55 1 53 59
M  V30 56 1 54 55
M  V30 57 1 54 60
M  V30 58 2 55 56
M  V30 59 1 55 61
M  V30 60 1 56 57
M  V30 61 1 56 62
M  V30 62 2 57 52
M  V30 63 1 57 58
M  V30 64 2 63 64
M  V30 65 1 63 69
M  V30 66 1 64 65
M  V30 67 1 64 70
M  V30 68 2 65 66
M  V30 69 1 65 71
M  V30 70 1 66 67
M  V30 71 1 66 72
M  V30 72 2 67 51
M  V30 73 1 67 68
M  V30 74 1 46 50
M  V30 75 2 74 75
M  V30 76 1 74 77
M  V30 77 1 76 77
M  V30 78 2 76 78
M  V30 79 1 76 83
M  V30 80 2 77 80
M  V30 81 1 78 79
M  V30 82 1 78 84
M  V30 83 1 79 86
M  V30 84 1 80 81
M  V30 85 1 80 85
M  V30 86 2 81 79
M  V30 87 1 81 82
M  V30 88 2 86 87
M  V30 89 2 88 89
M  V30 90 1 88 91
M  V30 91 1 90 91
M  V30 92 2 90 92
M  V30 93 1 90 97
M  V30 94 2 91 94
M  V30 95 1 92 93
M  V30 96 1 92 98
M  V30 97 1 93 100
M  V30 98 1 94 95
M  V30 99 1 94 99
M  V30 100 2 95 93
M  V30 101 1 95 96
M  V30 102 2 100 101
M  V30 103 1 102 113
M  V30 104 1 102 121
M  V30 105 2 103 104
M  V30 106 1 103 105
M  V30 107 1 104 111
M  V30 108 2 105 106
M  V30 109 1 105 107
M  V30 110 1 106 108
M  V30 111 1 106 109
M  V30 112 2 108 110
M  V30 113 1 108 116
M  V30 114 1 110 104
M  V30 115 1 110 112
M  V30 116 1 113 103
M  V30 117 1 113 114
M  V30 118 1 113 115
M  V30 119 1 116 117
M  V30 120 1 116 118
M  V30 121 1 116 119
M  V30 122 1 117 120
M  V30 123 1 122 133
M  V30 124 1 122 141
M  V30 125 2 123 124
M  V30 126 1 123 125
M  V30 127 1 124 131
M  V30 128 2 125 126
M  V30 129 1 125 127
M  V30 130 1 126 128
M  V30 131 1 126 129
M  V30 132 2 128 130
M  V30 133 1 128 136
M  V30 134 1 130 124
M  V30 135 1 130 132
M  V30 136 1 133 123
M  V30 137 1 133 134
M  V30 138 1 133 135
M  V30 139 1 136 137
M  V30 140 1 136 138
M  V30 141 1 136 139
M  V30 142 1 137 140
M  V30 143 1 74 117
M  V30 144 1 100 102
M  V30 145 1 88 137
M  V30 146 1 86 122
M  V30 147 1 27 36
M  V30 148 1 142 143
M  V30 149 2 143 144
M  V30 150 1 143 151
M  V30 151 1 144 145
M  V30 152 1 144 152
M  V30 153 2 145 146
M  V30 154 1 145 153
M  V30 155 1 146 147
M  V30 156 1 146 148
M  V30 157 2 147 142
M  V30 158 1 147 150
M  V30 159 3 148 149
M  V30 160 1 154 155
M  V30 161 2 155 156
M  V30 162 1 155 163
M  V30 163 1 156 157
M  V30 164 1 156 164
M  V30 165 2 157 158
M  V30 166 1 157 165
M  V30 167 1 158 159
M  V30 168 1 158 160
M  V30 169 2 159 154
M  V30 170 1 159 162
M  V30 171 3 160 161
M  V30 172 1 166 167
M  V30 173 2 167 168
M  V30 174 1 167 173
M  V30 175 1 168 169
M  V30 176 2 169 170
M  V30 177 1 169 174
M  V30 178 1 170 171
M  V30 179 2 171 166
M  V30 180 1 171 172
M  V30 181 1 149 168
M  V30 182 1 161 170
M  V30 183 2 175 176
M  V30 184 1 175 177
M  V30 185 1 177 178
M  V30 186 1 177 184
M  V30 187 1 178 179
M  V30 188 1 178 180
M  V30 189 1 178 181
M  V30 190 2 179 182
M  V30 191 1 179 183
M  V30 192 1 183 185
M  V30 193 1 183 186
M  V30 194 1 185 187
M  V30 195 1 185 188
M  V30 196 1 189 190
M  V30 197 1 189 191
M  V30 198 1 189 212
M  V30 199 1 190 202
M  V30 200 1 191 192
M  V30 201 2 192 193
M  V30 202 1 192 198
M  V30 203 1 193 194
M  V30 204 1 193 199
M  V30 205 2 194 195
M  V30 206 1 194 200
M  V30 207 1 195 196
M  V30 208 1 195 201
M  V30 209 2 196 191
M  V30 210 1 196 197
M  V30 211 2 202 203
M  V30 212 1 202 208
M  V30 213 1 203 204
M  V30 214 1 203 209
M  V30 215 2 204 205
M  V30 216 1 204 210
M  V30 217 1 205 206
M  V30 218 1 205 211
M  V30 219 2 206 190
M  V30 220 1 206 207
M  V30 221 1 185 189
M  V30 222 2 213 214
M  V30 223 1 213 216
M  V30 224 1 215 216
M  V30 225 2 215 217
M  V30 226 1 215 222
M  V30 227 2 216 219
M  V30 228 1 217 218
M  V30 229 1 217 223
M  V30 230 1 218 225
M  V30 231 1 219 220
M  V30 232 1 219 224
M  V30 233 2 220 218
M  V30 234 1 220 221
M  V30 235 2 225 226
M  V30 236 2 227 228
M  V30 237 1 227 230
M  V30 238 1 229 230
M  V30 239 2 229 231
M  V30 240 1 229 236
M  V30 241 2 230 233
M  V30 242 1 231 232
M  V30 243 1 231 237
M  V30 244 1 232 239
M  V30 245 1 233 234
M  V30 246 1 233 238
M  V30 247 2 234 232
M  V30 248 1 234 235
M  V30 249 2 239 240
M  V30 250 1 241 252
M  V30 251 1 241 260
M  V30 252 2 242 243
M  V30 253 1 242 244
M  V30 254 1 243 250
M  V30 255 2 244 245
M  V30 256 1 244 246
M  V30 257 1 245 247
M  V30 258 1 245 248
M  V30 259 2 247 249
M  V30 260 1 247 255
M  V30 261 1 249 243
M  V30 262 1 249 251
M  V30 263 1 252 242
M  V30 264 1 252 253
M  V30 265 1 252 254
M  V30 266 1 255 256
M  V30 267 1 255 257
M  V30 268 1 255 258
M  V30 269 1 256 259
M  V30 270 1 261 272
M  V30 271 1 261 280
M  V30 272 2 262 263
M  V30 273 1 262 264
M  V30 274 1 263 270
M  V30 275 2 264 265
M  V30 276 1 264 266
M  V30 277 1 265 267
M  V30 278 1 265 268
M  V30 279 2 267 269
M  V30 280 1 267 275
M  V30 281 1 269 263
M  V30 282 1 269 271
M  V30 283 1 272 262
M  V30 284 1 272 273
M  V30 285 1 272 274
M  V30 286 1 275 276
M  V30 287 1 275 277
M  V30 288 1 275 278
M  V30 289 1 276 279
M  V30 290 1 213 256
M  V30 291 1 239 241
M  V30 292 1 227 276
M  V30 293 1 225 261
M  V30 294 1 166 175
M  V30 295 1 281 282
M  V30 296 2 282 283
M  V30 297 1 282 290
M  V30 298 1 283 284
M  V30 299 1 283 291
M  V30 300 2 284 285
M  V30 301 1 284 292
M  V30 302 1 285 286
M  V30 303 1 285 287
M  V30 304 2 286 281
M  V30 305 1 286 289
M  V30 306 3 287 288
M  V30 307 1 293 294
M  V30 308 2 294 295
M  V30 309 1 294 302
M  V30 310 1 295 296
M  V30 311 1 295 303
M  V30 312 2 296 297
M  V30 313 1 296 304
M  V30 314 1 297 298
M  V30 315 1 297 299
M  V30 316 2 298 293
M  V30 317 1 298 301
M  V30 318 3 299 300
M  V30 319 1 305 306
M  V30 320 2 306 307
M  V30 321 1 306 312
M  V30 322 1 307 308
M  V30 323 2 308 309
M  V30 324 1 308 313
M  V30 325 1 309 310
M  V30 326 2 310 305
M  V30 327 1 310 311
M  V30 328 1 288 307
M  V30 329 1 300 309
M  V30 330 2 314 315
M  V30 331 1 314 316
M  V30 332 1 316 317
M  V30 333 1 316 323
M  V30 334 1 317 318
M  V30 335 1 317 319
M  V30 336 1 317 320
M  V30 337 2 318 321
M  V30 338 1 318 322
M  V30 339 1 322 324
M  V30 340 1 322 325
M  V30 341 1 324 326
M  V30 342 1 324 327
M  V30 343 1 328 329
M  V30 344 1 328 330
M  V30 345 1 328 351
M  V30 346 1 329 341
M  V30 347 1 330 331
M  V30 348 2 331 332
M  V30 349 1 331 337
M  V30 350 1 332 333
M  V30 351 1 332 338
M  V30 352 2 333 334
M  V30 353 1 333 339
M  V30 354 1 334 335
M  V30 355 1 334 340
M  V30 356 2 335 330
M  V30 357 1 335 336
M  V30 358 2 341 342
M  V30 359 1 341 347
M  V30 360 1 342 343
M  V30 361 1 342 348
M  V30 362 2 343 344
M  V30 363 1 343 349
M  V30 364 1 344 345
M  V30 365 1 344 350
M  V30 366 2 345 329
M  V30 367 1 345 346
M  V30 368 1 324 328
M  V30 369 2 352 353
M  V30 370 1 352 355
M  V30 371 1 354 355
M  V30 372 2 354 356
M  V30 373 1 354 361
M  V30 374 2 355 358
M  V30 375 1 356 357
M  V30 376 1 356 362
M  V30 377 1 357 364
M  V30 378 1 358 359
M  V30 379 1 358 363
M  V30 380 2 359 357
M  V30 381 1 359 360
M  V30 382 2 364 365
M  V30 383 2 366 367
M  V30 384 1 366 369
M  V30 385 1 368 369
M  V30 386 2 368 370
M  V30 387 1 368 375
M  V30 388 2 369 372
M  V30 389 1 370 371
M  V30 390 1 370 376
M  V30 391 1 371 378
M  V30 392 1 372 373
M  V30 393 1 372 377
M  V30 394 2 373 371
M  V30 395 1 373 374
M  V30 396 2 378 379
M  V30 397 1 380 391
M  V30 398 1 380 399
M  V30 399 2 381 382
M  V30 400 1 381 383
M  V30 401 1 382 389
M  V30 402 2 383 384
M  V30 403 1 383 385
M  V30 404 1 384 386
M  V30 405 1 384 387
M  V30 406 2 386 388
M  V30 407 1 386 394
M  V30 408 1 388 382
M  V30 409 1 388 390
M  V30 410 1 391 381
M  V30 411 1 391 392
M  V30 412 1 391 393
M  V30 413 1 394 395
M  V30 414 1 394 396
M  V30 415 1 394 397
M  V30 416 1 395 398
M  V30 417 1 400 411
M  V30 418 1 400 419
M  V30 419 2 401 402
M  V30 420 1 401 403
M  V30 421 1 402 409
M  V30 422 2 403 404
M  V30 423 1 403 405
M  V30 424 1 404 406
M  V30 425 1 404 407
M  V30 426 2 406 408
M  V30 427 1 406 414
M  V30 428 1 408 402
M  V30 429 1 408 410
M  V30 430 1 411 401
M  V30 431 1 411 412
M  V30 432 1 411 413
M  V30 433 1 414 415
M  V30 434 1 414 416
M  V30 435 1 414 417
M  V30 436 1 415 418
M  V30 437 1 352 395
M  V30 438 1 378 380
M  V30 439 1 366 415
M  V30 440 1 364 400
M  V30 441 1 305 314
M  V30 442 1 420 421
M  V30 443 2 421 422
M  V30 444 1 421 429
M  V30 445 1 422 423
M  V30 446 1 422 430
M  V30 447 2 423 424
M  V30 448 1 423 431
M  V30 449 1 424 425
M  V30 450 1 424 426
M  V30 451 2 425 420
M  V30 452 1 425 428
M  V30 453 3 426 427
M  V30 454 1 432 433
M  V30 455 2 433 434
M  V30 456 1 433 441
M  V30 457 1 434 435
M  V30 458 1 434 442
M  V30 459 2 435 436
M  V30 460 1 435 443
M  V30 461 1 436 437
M  V30 462 1 436 438
M  V30 463 2 437 432
M  V30 464 1 437 440
M  V30 465 3 438 439
M  V30 466 1 444 445
M  V30 467 2 445 446
M  V30 468 1 445 451
M  V30 469 1 446 447
M  V30 470 2 447 448
M  V30 471 1 447 452
M  V30 472 1 448 449
M  V30 473 2 449 444
M  V30 474 1 449 450
M  V30 475 1 427 446
M  V30 476 1 439 448
M  V30 477 2 453 454
M  V30 478 1 453 455
M  V30 479 1 455 456
M  V30 480 1 455 462
M  V30 481 1 456 457
M  V30 482 1 456 458
M  V30 483 1 456 459
M  V30 484 2 457 460
M  V30 485 1 457 461
M  V30 486 1 461 463
M  V30 487 1 461 464
M  V30 488 1 463 465
M  V30 489 1 463 466
M  V30 490 1 467 468
M  V30 491 1 467 469
M  V30 492 1 467 490
M  V30 493 1 468 480
M  V30 494 1 469 470
M  V30 495 2 470 471
M  V30 496 1 470 476
M  V30 497 1 471 472
M  V30 498 1 471 477
M  V30 499 2 472 473
M  V30 500 1 472 478
M  V30 501 1 473 474
M  V30 502 1 473 479
M  V30 503 2 474 469
M  V30 504 1 474 475
M  V30 505 2 480 481
M  V30 506 1 480 486
M  V30 507 1 481 482
M  V30 508 1 481 487
M  V30 509 2 482 483
M  V30 510 1 482 488
M  V30 511 1 483 484
M  V30 512 1 483 489
M  V30 513 2 484 468
M  V30 514 1 484 485
M  V30 515 1 463 467
M  V30 516 2 491 492
M  V30 517 1 491 494
M  V30 518 1 493 494
M  V30 519 2 493 495
M  V30 520 1 493 500
M  V30 521 2 494 497
M  V30 522 1 495 496
M  V30 523 1 495 501
M  V30 524 1 496 503
M  V30 525 1 497 498
M  V30 526 1 497 502
M  V30 527 2 498 496
M  V30 528 1 498 499
M  V30 529 2 503 504
M  V30 530 2 505 506
M  V30 531 1 505 508
M  V30 532 1 507 508
M  V30 533 2 507 509
M  V30 534 1 507 514
M  V30 535 2 508 511
M  V30 536 1 509 510
M  V30 537 1 509 515
M  V30 538 1 510 517
M  V30 539 1 511 512
M  V30 540 1 511 516
M  V30 541 2 512 510
M  V30 542 1 512 513
M  V30 543 2 517 518
M  V30 544 1 519 530
M  V30 545 1 519 538
M  V30 546 2 520 521
M  V30 547 1 520 522
M  V30 548 1 521 528
M  V30 549 2 522 523
M  V30 550 1 522 524
M  V30 551 1 523 525
M  V30 552 1 523 526
M  V30 553 2 525 527
M  V30 554 1 525 533
M  V30 555 1 527 521
M  V30 556 1 527 529
M  V30 557 1 530 520
M  V30 558 1 530 531
M  V30 559 1 530 532
M  V30 560 1 533 534
M  V30 561 1 533 535
M  V30 562 1 533 536
M  V30 563 1 534 537
M  V30 564 1 539 550
M  V30 565 1 539 558
M  V30 566 2 540 541
M  V30 567 1 540 542
M  V30 568 1 541 548
M  V30 569 2 542 543
M  V30 570 1 542 544
M  V30 571 1 543 545
M  V30 572 1 543 546
M  V30 573 2 545 547
M  V30 574 1 545 553
M  V30 575 1 547 541
M  V30 576 1 547 549
M  V30 577 1 550 540
M  V30 578 1 550 551
M  V30 579 1 550 552
M  V30 580 1 553 554
M  V30 581 1 553 555
M  V30 582 1 553 556
M  V30 583 1 554 557
M  V30 584 1 491 534
M  V30 585 1 517 519
M  V30 586 1 505 554
M  V30 587 1 503 539
M  V30 588 1 444 453
M  V30 589 9 3 1
M  V30 590 9 142 1
M  V30 591 9 281 1
M  V30 592 9 420 1
M  V30 593 9 15 2
M  V30 594 9 154 2
M  V30 595 9 293 2
M  V30 596 9 432 2
M  V30 END BOND
M  V30 END CTAB
M  END

$$$$
