192

C         -0.84390       -1.52410       10.20980
C         -2.03870       -0.83750       10.20980
C         -2.07320        0.54100       10.20990
C         -0.88360        1.26900       10.20990
C          0.29300        0.54090       10.20990
C          0.35510       -0.83420       10.20990
C          1.64200       -1.53540       10.20990
C         -0.88820        2.71760       10.20990
C         -3.31090       -1.53810       10.20990
H         -0.80030       -2.60390       10.20980
H         -2.98910        1.10450       10.20990
H          1.22140        1.13690       10.20990
H          1.72320       -2.60170       10.20990
H         -1.82090        3.23450       10.20980
H         -3.29540       -2.61420       10.20990
C         -9.27190       -3.68710       -1.82680
C         -8.87550       -4.83460       -1.17500
C         -8.07970       -5.77350       -1.79660
C         -7.65940       -5.57210       -3.11110
C         -8.07980       -4.40730       -3.72850
C         -8.87370       -3.45470       -3.13100
C         -9.27850       -2.24420       -3.85120
C         -6.82300       -6.54040       -3.79020
C         -9.28000       -5.10210        0.19410
H         -9.89530       -2.94210       -1.35340
H         -7.75440       -6.67800       -1.31440
H         -7.73570       -4.26860       -4.76750
H         -9.89420       -1.48660       -3.41480
H         -6.52450       -7.42350       -3.27230
H         -9.90140       -4.37570        0.68870
C          6.94490       -5.85910       -2.08390
C          7.74050       -4.94200       -1.43210
C          8.15570       -3.78330       -2.05370
C          7.77100       -3.52010       -3.36820
C          6.97250       -4.46650       -3.98570
C          6.54450       -5.63040       -3.38810
C          5.69860       -6.58620       -4.10830
C          8.19150       -2.31160       -4.04730
C          8.17430       -5.15860       -0.06300
H          6.61140       -6.77150       -1.61050
H          8.77630       -3.04940       -1.57150
H          6.68040       -4.23790       -5.02470
H          5.35030       -7.49820       -3.67190
H          8.80700       -1.61150       -3.52940
H          7.85590       -6.05990        0.43160
C          0.93510        9.86050       -2.35940
C         -0.25690       10.09100       -1.70760
C         -1.46790        9.87120       -2.32920
C         -1.50360        9.40650       -3.64370
C         -0.28470        9.18820       -4.26120
C          0.93720        9.39940       -3.66360
C          2.18790        9.14480       -4.38390
C         -2.76040        9.16630       -4.32290
C         -0.28620       10.57500       -0.33850
H          1.89200       10.02790       -1.88600
H         -2.41390       10.04170       -1.84700
H         -0.33670        8.82080       -5.30020
H          3.15190        9.29910       -3.94750
H         -3.67450        9.34940       -3.80490
H          0.65350       10.74990        0.15600
C         -7.13630       -4.28010        7.67820
C         -6.42930       -3.87590        8.80060
C         -5.39620       -2.98730        8.64120
C         -5.05780       -2.49950        7.40040
C         -5.78920       -2.92990        6.31220
C         -6.83840       -3.82210        6.41190
C         -7.56810       -4.23300        5.21600
C         -8.91090       -4.55180        5.22830
C         -9.58950       -4.93860        4.08880
C         -8.94070       -5.02280        2.87490
C         -7.59970       -4.70410        2.86440
C         -6.91960       -4.31730        4.00180
N         -9.61320       -5.41860        1.68370
N         -4.65960       -2.55860        9.77300
H         -7.95600       -4.98320        7.79800
H         -6.70570       -4.26680        9.77630
H         -4.23340       -1.80080        7.33400
H         -5.52940       -2.55260        5.34000
H         -9.43660       -4.49560        6.15530
H        -10.64840       -5.19080        4.09110
H         -7.06730       -4.76370        1.92090
H         -5.85790       -4.06610        3.98530
C          5.68980       -3.16890        7.43900
C          4.98620       -2.75870        8.56150
C          3.69970       -2.30930        8.40220
C          3.10760       -2.26120        7.16150
C          3.84610       -2.67940        6.07330
C          5.14380       -3.14100        6.17290
C          5.86450       -3.56730        4.97690
C          6.81280       -4.57010        4.98940
C          7.48700       -4.96440        3.85000
C          7.23470       -4.36130        2.63580
C          6.28750       -3.36000        2.62510
C          5.61240       -2.96440        3.76250
N          7.91370       -4.74580        1.44470
N          2.96010       -1.88580        9.53390
H          6.70880       -3.52640        7.55870
H          5.46320       -2.80180        9.53700
H          2.09010       -1.89750        7.09520
H          3.38910       -2.64390        5.10120
H          7.02750       -5.05300        5.91660
H          8.23540       -5.75480        3.85240
H          6.07230       -2.86970        1.68150
H          4.86340       -2.17110        3.74590
C         -0.44460        6.94490        7.01670
C         -0.44800        6.13040        8.13920
C         -0.19310        4.79180        7.98000
C          0.06210        4.25520        6.73940
C          0.05500        5.10380        5.65130
C         -0.19500        6.45820        5.75070
C         -0.18610        7.29560        4.55480
C          0.20740        8.61840        4.56740
C          0.21180        9.39950        3.42800
C         -0.18360        8.87920        2.21370
C         -0.57630        7.55800        2.20280
C         -0.58140        6.77550        3.34020
N         -0.19010        9.65950        1.02250
N         -0.19010        3.93950        9.11180
H         -0.64520        8.00600        7.13630
H         -0.64990        6.56500        9.11460
H          0.25660        3.19220        6.67330
H          0.25330        4.69040        4.67920
H          0.51750        9.04600        5.49480
H          0.52140       10.44300        3.43050
H         -0.89270        7.12630        1.25900
H         -0.89330        5.73000        3.32340
C         -2.09470       -8.16380       -5.21400
C         -3.48140       -8.15190       -5.20150
C         -4.12440       -7.03770       -4.72450
C         -3.42120       -5.94820       -4.26530
C         -2.04280       -6.00510       -4.29690
C         -1.34200       -7.09880       -4.76540
C          0.11790       -7.08810       -4.76880
C          0.87130       -7.74790       -5.71850
C          2.25260       -7.72900       -5.71050
C          2.94370       -7.03890       -4.73690
C          2.18980       -6.38060       -3.78920
C          0.80930       -6.39810       -3.79540
N          4.36680       -7.00130       -4.70240
N         -5.54050       -7.00130       -4.70240
H         -1.57970       -9.04310       -5.59110
H         -4.02700       -9.01770       -5.56740
H         -3.98090       -5.09650       -3.90010
H         -1.48780       -5.15710       -3.93920
H          0.36100       -8.29040       -6.48290
H          2.85300       -8.24640       -6.45660
H          2.71110       -5.83130       -3.01230
H          0.21940       -5.87390       -3.04180
C         -7.58900        2.63990       -5.71670
C         -8.26870        1.43110       -5.70980
C         -7.87790        0.46310       -4.81950
C         -6.83590        0.67330       -3.94650
C         -6.18890        1.89150       -3.98960
C         -6.53790        2.90220       -4.86340
C         -5.80760        4.16630       -4.85220
C         -6.39720        5.37670       -5.15600
C         -5.69450        6.56590       -5.14090
C         -4.35440        6.59030       -4.81640
C         -3.76720        5.38070       -4.51330
C         -4.46750        4.19100       -4.52770
N         -3.60380        7.80010       -4.79260
N         -8.55750       -0.77980       -4.79260
H         -7.89420        3.41070       -6.41910
H         -9.09110        1.27590       -6.40310
H         -6.57080       -0.12600       -3.26610
H         -5.37370        2.06160       -3.31020
H         -7.43340        5.38570       -5.41140
H         -6.15310        7.52400       -5.37870
H         -2.71330        5.37420       -4.25570
H         -3.99550        3.23730       -4.28600
C          7.21320        2.83190       -5.15470
C          7.89630        1.62510       -5.14210
C          7.25290        0.51120       -4.66510
C          5.95780        0.57540       -4.20590
C          5.31780        1.79760       -4.23750
C          5.91460        2.95130       -4.70610
C          5.17540        4.21030       -4.70940
C          5.37010        5.19270       -5.65920
C          4.66310        6.37950       -5.65110
C          3.71980        6.63290       -4.67750
C          3.52670        5.65090       -3.72980
C          4.23210        4.46410       -3.73600
N          2.97580        7.84650       -4.64300
N          7.92940       -0.73340       -4.64300
H          7.71720        3.71760       -5.53180
H          8.91890        1.58550       -5.50810
H          5.50000       -0.33520       -3.84080
H          4.30590        1.85420       -3.87980
H          6.09500        5.02200       -6.42360
H          4.81090        7.15810       -6.39720
H          2.79030        5.82770       -2.95290
H          4.07310        3.69110       -2.98240
